<?xml version="1.0" ?><!-- generated on Tue May 28 15:11:22 2019 by Eclipse SUMO duarouter Version 1.2.0
<configuration xmlns:xsi="http://www.w3.org/2001/XMLSchema-instance" xsi:noNamespaceSchemaLocation="http://sumo.dlr.de/xsd/duarouterConfiguration.xsd">

    <input>
        <net-file value="test.net.xml"/>
        <route-files value="trips.trips.xml"/>
    </input>

    <output>
        <output-file value="test.rou.xml"/>
        <alternatives-output value="test.rou.alt.xml"/>
    </output>

    <time>
        <begin value="0"/>
        <end value="500.0"/>
    </time>

    <report>
        <no-warnings value="true"/>
        <ignore-errors value="true"/>
        <no-step-log value="true"/>
    </report>

</configuration>
--><routes xmlns:xsi="http://www.w3.org/2001/XMLSchema-instance" xsi:noNamespaceSchemaLocation="http://sumo.dlr.de/xsd/routes_file.xsd">
    <vehicle depart="0.80" id="1">
        <route edges="15420484#2"/>
    </vehicle>
    <vehicle depart="1.60" id="2">
        <route edges="597602756#0"/>
    </vehicle>
    <vehicle depart="2.40" id="3">
        <route edges="15420484#2"/>
    </vehicle>
    <vehicle depart="3.20" id="4">
        <route edges="597602756#0"/>
    </vehicle>
    <vehicle depart="4.00" id="5">
        <route edges="15420484#2"/>
    </vehicle>
    <vehicle depart="4.80" id="6">
        <route edges="597602756#0"/>
    </vehicle>
    <vehicle depart="6.40" id="8">
        <route edges="15420484#2"/>
    </vehicle>
    <vehicle depart="8.00" id="10">
        <route edges="597602756#0"/>
    </vehicle>
    <vehicle depart="8.80" id="11">
        <route edges="15420484#2"/>
    </vehicle>
    <vehicle depart="9.60" id="12">
        <route edges="597602756#0"/>
    </vehicle>
    <vehicle depart="10.40" id="13">
        <route edges="597602756#0"/>
    </vehicle>
    <vehicle depart="11.20" id="14">
        <route edges="597602756#0"/>
    </vehicle>
    <vehicle depart="12.00" id="15">
        <route edges="597602756#0"/>
    </vehicle>
    <vehicle depart="12.80" id="16">
        <route edges="597602756#0"/>
    </vehicle>
    <vehicle depart="13.60" id="17">
        <route edges="597602756#0"/>
    </vehicle>
    <vehicle depart="14.40" id="18">
        <route edges="597602756#0"/>
    </vehicle>
    <vehicle depart="16.00" id="20">
        <route edges="260998164#3"/>
    </vehicle>
    <vehicle depart="16.80" id="21">
        <route edges="260998164#3"/>
    </vehicle>
    <vehicle depart="17.60" id="22">
        <route edges="260998164#3"/>
    </vehicle>
    <vehicle depart="18.40" id="23">
        <route edges="44884008#2"/>
    </vehicle>
    <vehicle depart="19.20" id="24">
        <route edges="15420484#2"/>
    </vehicle>
    <vehicle depart="20.00" id="25">
        <route edges="597602756#0"/>
    </vehicle>
    <vehicle depart="20.80" id="26">
        <route edges="15420484#2"/>
    </vehicle>
    <vehicle depart="21.60" id="27">
        <route edges="597602756#0"/>
    </vehicle>
    <vehicle depart="22.40" id="28">
        <route edges="15420484#2"/>
    </vehicle>
    <vehicle depart="23.20" id="29">
        <route edges="597602756#0"/>
    </vehicle>
    <vehicle depart="24.00" id="30">
        <route edges="15420484#2"/>
    </vehicle>
    <vehicle depart="24.80" id="31">
        <route edges="597602756#0"/>
    </vehicle>
    <vehicle depart="25.60" id="32">
        <route edges="15420484#2"/>
    </vehicle>
    <vehicle depart="26.40" id="33">
        <route edges="597602756#0"/>
    </vehicle>
    <vehicle depart="27.20" id="34">
        <route edges="597602756#0"/>
    </vehicle>
    <vehicle depart="28.00" id="35">
        <route edges="597602756#0"/>
    </vehicle>
    <vehicle depart="28.80" id="36">
        <route edges="597602756#0"/>
    </vehicle>
    <vehicle depart="29.60" id="37">
        <route edges="597602756#0"/>
    </vehicle>
    <vehicle depart="30.40" id="38">
        <route edges="597602756#0"/>
    </vehicle>
    <vehicle depart="31.20" id="39">
        <route edges="597602756#0"/>
    </vehicle>
    <vehicle depart="32.00" id="40">
        <route edges="260998164#3"/>
    </vehicle>
    <vehicle depart="32.80" id="41">
        <route edges="260998164#3"/>
    </vehicle>
    <vehicle depart="33.60" id="42">
        <route edges="260998164#3"/>
    </vehicle>
    <vehicle depart="34.40" id="43">
        <route edges="44884008#2"/>
    </vehicle>
    <vehicle depart="35.20" id="44">
        <route edges="15420484#2"/>
    </vehicle>
    <vehicle depart="36.00" id="45">
        <route edges="597602756#0"/>
    </vehicle>
    <vehicle depart="36.80" id="46">
        <route edges="15420484#2"/>
    </vehicle>
    <vehicle depart="37.60" id="47">
        <route edges="597602756#0"/>
    </vehicle>
    <vehicle depart="39.20" id="49">
        <route edges="15420484#2"/>
    </vehicle>
    <vehicle depart="40.00" id="50">
        <route edges="597602756#0"/>
    </vehicle>
    <vehicle depart="40.80" id="51">
        <route edges="15420484#2"/>
    </vehicle>
    <vehicle depart="41.60" id="52">
        <route edges="597602756#0"/>
    </vehicle>
    <vehicle depart="42.40" id="53">
        <route edges="15420484#2"/>
    </vehicle>
    <vehicle depart="43.20" id="54">
        <route edges="597602756#0"/>
    </vehicle>
    <vehicle depart="44.00" id="55">
        <route edges="597602756#0"/>
    </vehicle>
    <vehicle depart="44.80" id="56">
        <route edges="597602756#0"/>
    </vehicle>
    <vehicle depart="45.60" id="57">
        <route edges="597602756#0"/>
    </vehicle>
    <vehicle depart="46.40" id="58">
        <route edges="597602756#0"/>
    </vehicle>
    <vehicle depart="47.20" id="59">
        <route edges="597602756#0"/>
    </vehicle>
    <vehicle depart="48.00" id="60">
        <route edges="597602756#0"/>
    </vehicle>
    <vehicle depart="48.80" id="61">
        <route edges="260998164#3"/>
    </vehicle>
    <vehicle depart="49.60" id="62">
        <route edges="260998164#3"/>
    </vehicle>
    <vehicle depart="50.40" id="63">
        <route edges="260998164#3"/>
    </vehicle>
    <vehicle depart="51.20" id="64">
        <route edges="44884008#2"/>
    </vehicle>
    <vehicle depart="52.00" id="65">
        <route edges="15420484#2"/>
    </vehicle>
    <vehicle depart="52.80" id="66">
        <route edges="597602756#0"/>
    </vehicle>
    <vehicle depart="53.60" id="67">
        <route edges="15420484#2"/>
    </vehicle>
    <vehicle depart="54.40" id="68">
        <route edges="597602756#0"/>
    </vehicle>
    <vehicle depart="55.20" id="69">
        <route edges="15420484#2"/>
    </vehicle>
    <vehicle depart="56.00" id="70">
        <route edges="597602756#0"/>
    </vehicle>
    <vehicle depart="56.80" id="71">
        <route edges="15420484#2"/>
    </vehicle>
    <vehicle depart="57.60" id="72">
        <route edges="597602756#0"/>
    </vehicle>
    <vehicle depart="58.40" id="73">
        <route edges="15420484#2"/>
    </vehicle>
    <vehicle depart="59.20" id="74">
        <route edges="597602756#0"/>
    </vehicle>
    <vehicle depart="60.00" id="75">
        <route edges="597602756#0"/>
    </vehicle>
    <vehicle depart="60.80" id="76">
        <route edges="597602756#0"/>
    </vehicle>
    <vehicle depart="61.60" id="77">
        <route edges="597602756#0"/>
    </vehicle>
    <vehicle depart="62.40" id="78">
        <route edges="597602756#0"/>
    </vehicle>
    <vehicle depart="63.20" id="79">
        <route edges="597602756#0"/>
    </vehicle>
    <vehicle depart="64.00" id="80">
        <route edges="597602756#0"/>
    </vehicle>
    <vehicle depart="64.80" id="81">
        <route edges="260998164#3"/>
    </vehicle>
    <vehicle depart="65.60" id="82">
        <route edges="260998164#3"/>
    </vehicle>
    <vehicle depart="66.40" id="83">
        <route edges="260998164#3"/>
    </vehicle>
    <vehicle depart="68.00" id="85">
        <route edges="44884008#2"/>
    </vehicle>
    <vehicle depart="68.80" id="86">
        <route edges="15420484#2"/>
    </vehicle>
    <vehicle depart="69.60" id="87">
        <route edges="597602756#0"/>
    </vehicle>
    <vehicle depart="70.40" id="88">
        <route edges="15420484#2"/>
    </vehicle>
    <vehicle depart="71.20" id="89">
        <route edges="597602756#0"/>
    </vehicle>
    <vehicle depart="72.00" id="90">
        <route edges="15420484#2"/>
    </vehicle>
    <vehicle depart="72.80" id="91">
        <route edges="597602756#0"/>
    </vehicle>
    <vehicle depart="73.60" id="92">
        <route edges="15420484#2"/>
    </vehicle>
    <vehicle depart="74.40" id="93">
        <route edges="597602756#0"/>
    </vehicle>
    <vehicle depart="75.20" id="94">
        <route edges="15420484#2"/>
    </vehicle>
    <vehicle depart="76.00" id="95">
        <route edges="597602756#0"/>
    </vehicle>
    <vehicle depart="76.80" id="96">
        <route edges="597602756#0"/>
    </vehicle>
    <vehicle depart="77.60" id="97">
        <route edges="597602756#0"/>
    </vehicle>
    <vehicle depart="78.40" id="98">
        <route edges="597602756#0"/>
    </vehicle>
    <vehicle depart="79.20" id="99">
        <route edges="597602756#0"/>
    </vehicle>
    <vehicle depart="80.00" id="100">
        <route edges="597602756#0"/>
    </vehicle>
    <vehicle depart="80.80" id="101">
        <route edges="597602756#0"/>
    </vehicle>
    <vehicle depart="81.60" id="102">
        <route edges="260998164#3"/>
    </vehicle>
    <vehicle depart="83.20" id="104">
        <route edges="260998164#3"/>
    </vehicle>
    <vehicle depart="84.00" id="105">
        <route edges="260998164#3"/>
    </vehicle>
    <vehicle depart="84.80" id="106">
        <route edges="44884008#2"/>
    </vehicle>
    <vehicle depart="85.60" id="107">
        <route edges="15420484#2"/>
    </vehicle>
    <vehicle depart="86.40" id="108">
        <route edges="597602756#0"/>
    </vehicle>
    <vehicle depart="87.20" id="109">
        <route edges="15420484#2"/>
    </vehicle>
    <vehicle depart="88.00" id="110">
        <route edges="597602756#0"/>
    </vehicle>
    <vehicle depart="89.60" id="112">
        <route edges="15420484#2"/>
    </vehicle>
    <vehicle depart="90.40" id="113">
        <route edges="597602756#0"/>
    </vehicle>
    <vehicle depart="91.20" id="114">
        <route edges="15420484#2"/>
    </vehicle>
    <vehicle depart="92.00" id="115">
        <route edges="597602756#0"/>
    </vehicle>
    <vehicle depart="92.80" id="116">
        <route edges="15420484#2"/>
    </vehicle>
    <vehicle depart="93.60" id="117">
        <route edges="597602756#0"/>
    </vehicle>
    <vehicle depart="94.40" id="118">
        <route edges="597602756#0"/>
    </vehicle>
    <vehicle depart="95.20" id="119">
        <route edges="597602756#0"/>
    </vehicle>
    <vehicle depart="96.00" id="120">
        <route edges="597602756#0"/>
    </vehicle>
    <vehicle depart="96.80" id="121">
        <route edges="597602756#0"/>
    </vehicle>
    <vehicle depart="97.60" id="122">
        <route edges="597602756#0"/>
    </vehicle>
    <vehicle depart="98.40" id="123">
        <route edges="597602756#0"/>
    </vehicle>
    <vehicle depart="99.20" id="124">
        <route edges="260998164#3"/>
    </vehicle>
    <vehicle depart="100.00" id="125">
        <route edges="260998164#3"/>
    </vehicle>
    <vehicle depart="100.80" id="126">
        <route edges="260998164#3"/>
    </vehicle>
    <vehicle depart="101.60" id="127">
        <route edges="44884008#2"/>
    </vehicle>
    <vehicle depart="102.40" id="128">
        <route edges="15420484#2"/>
    </vehicle>
    <vehicle depart="103.20" id="129">
        <route edges="597602756#0"/>
    </vehicle>
    <vehicle depart="104.00" id="130">
        <route edges="15420484#2"/>
    </vehicle>
    <vehicle depart="104.80" id="131">
        <route edges="597602756#0"/>
    </vehicle>
    <vehicle depart="105.60" id="132">
        <route edges="15420484#2"/>
    </vehicle>
    <vehicle depart="106.40" id="133">
        <route edges="597602756#0"/>
    </vehicle>
    <vehicle depart="107.20" id="134">
        <route edges="15420484#2"/>
    </vehicle>
    <vehicle depart="108.00" id="135">
        <route edges="597602756#0"/>
    </vehicle>
    <vehicle depart="108.80" id="136">
        <route edges="15420484#2"/>
    </vehicle>
    <vehicle depart="109.60" id="137">
        <route edges="597602756#0"/>
    </vehicle>
    <vehicle depart="110.40" id="138">
        <route edges="597602756#0"/>
    </vehicle>
    <vehicle depart="112.00" id="140">
        <route edges="597602756#0"/>
    </vehicle>
    <vehicle depart="112.80" id="141">
        <route edges="597602756#0"/>
    </vehicle>
    <vehicle depart="113.60" id="142">
        <route edges="597602756#0"/>
    </vehicle>
    <vehicle depart="114.40" id="143">
        <route edges="597602756#0"/>
    </vehicle>
    <vehicle depart="115.20" id="144">
        <route edges="597602756#0"/>
    </vehicle>
    <vehicle depart="116.00" id="145">
        <route edges="260998164#3"/>
    </vehicle>
    <vehicle depart="116.80" id="146">
        <route edges="260998164#3"/>
    </vehicle>
    <vehicle depart="117.60" id="147">
        <route edges="260998164#3"/>
    </vehicle>
    <vehicle depart="118.40" id="148">
        <route edges="44884008#2"/>
    </vehicle>
    <vehicle depart="119.20" id="149">
        <route edges="15420484#2"/>
    </vehicle>
    <vehicle depart="120.00" id="150">
        <route edges="597602756#0"/>
    </vehicle>
    <vehicle depart="120.80" id="151">
        <route edges="15420484#2"/>
    </vehicle>
    <vehicle depart="121.60" id="152">
        <route edges="597602756#0"/>
    </vehicle>
    <vehicle depart="122.40" id="153">
        <route edges="15420484#2"/>
    </vehicle>
    <vehicle depart="123.20" id="154">
        <route edges="597602756#0"/>
    </vehicle>
    <vehicle depart="124.00" id="155">
        <route edges="15420484#2"/>
    </vehicle>
    <vehicle depart="124.80" id="156">
        <route edges="597602756#0"/>
    </vehicle>
    <vehicle depart="125.60" id="157">
        <route edges="15420484#2"/>
    </vehicle>
    <vehicle depart="126.40" id="158">
        <route edges="597602756#0"/>
    </vehicle>
    <vehicle depart="127.20" id="159">
        <route edges="597602756#0"/>
    </vehicle>
    <vehicle depart="128.00" id="160">
        <route edges="597602756#0"/>
    </vehicle>
    <vehicle depart="129.60" id="162">
        <route edges="597602756#0"/>
    </vehicle>
    <vehicle depart="130.40" id="163">
        <route edges="597602756#0"/>
    </vehicle>
    <vehicle depart="131.20" id="164">
        <route edges="597602756#0"/>
    </vehicle>
    <vehicle depart="132.00" id="165">
        <route edges="597602756#0"/>
    </vehicle>
    <vehicle depart="133.60" id="167">
        <route edges="260998164#3"/>
    </vehicle>
    <vehicle depart="134.40" id="168">
        <route edges="260998164#3"/>
    </vehicle>
    <vehicle depart="135.20" id="169">
        <route edges="260998164#3"/>
    </vehicle>
    <vehicle depart="136.00" id="170">
        <route edges="44884008#2"/>
    </vehicle>
    <vehicle depart="137.60" id="172">
        <route edges="15420484#2"/>
    </vehicle>
    <vehicle depart="138.40" id="173">
        <route edges="597602756#0"/>
    </vehicle>
    <vehicle depart="140.00" id="175">
        <route edges="15420484#2"/>
    </vehicle>
    <vehicle depart="140.80" id="176">
        <route edges="597602756#0"/>
    </vehicle>
    <vehicle depart="141.60" id="177">
        <route edges="15420484#2"/>
    </vehicle>
    <vehicle depart="142.40" id="178">
        <route edges="597602756#0"/>
    </vehicle>
    <vehicle depart="143.20" id="179">
        <route edges="15420484#2"/>
    </vehicle>
    <vehicle depart="144.00" id="180">
        <route edges="597602756#0"/>
    </vehicle>
    <vehicle depart="144.80" id="181">
        <route edges="15420484#2"/>
    </vehicle>
    <vehicle depart="145.60" id="182">
        <route edges="597602756#0"/>
    </vehicle>
    <vehicle depart="146.40" id="183">
        <route edges="597602756#0"/>
    </vehicle>
    <vehicle depart="147.20" id="184">
        <route edges="597602756#0"/>
    </vehicle>
    <vehicle depart="148.00" id="185">
        <route edges="597602756#0"/>
    </vehicle>
    <vehicle depart="148.80" id="186">
        <route edges="597602756#0"/>
    </vehicle>
    <vehicle depart="149.60" id="187">
        <route edges="597602756#0"/>
    </vehicle>
    <vehicle depart="150.40" id="188">
        <route edges="597602756#0"/>
    </vehicle>
    <vehicle depart="151.20" id="189">
        <route edges="260998164#3"/>
    </vehicle>
    <vehicle depart="152.00" id="190">
        <route edges="260998164#3"/>
    </vehicle>
    <vehicle depart="153.60" id="192">
        <route edges="260998164#3"/>
    </vehicle>
    <vehicle depart="154.40" id="193">
        <route edges="44884008#2"/>
    </vehicle>
    <vehicle depart="155.20" id="194">
        <route edges="15420484#2"/>
    </vehicle>
    <vehicle depart="156.00" id="195">
        <route edges="597602756#0"/>
    </vehicle>
    <vehicle depart="156.80" id="196">
        <route edges="15420484#2"/>
    </vehicle>
    <vehicle depart="157.60" id="197">
        <route edges="597602756#0"/>
    </vehicle>
    <vehicle depart="158.40" id="198">
        <route edges="15420484#2"/>
    </vehicle>
    <vehicle depart="159.20" id="199">
        <route edges="597602756#0"/>
    </vehicle>
    <vehicle depart="160.00" id="200">
        <route edges="15420484#2"/>
    </vehicle>
    <vehicle depart="160.80" id="201">
        <route edges="597602756#0"/>
    </vehicle>
    <vehicle depart="161.60" id="202">
        <route edges="15420484#2"/>
    </vehicle>
    <vehicle depart="162.40" id="203">
        <route edges="597602756#0"/>
    </vehicle>
    <vehicle depart="163.20" id="204">
        <route edges="597602756#0"/>
    </vehicle>
    <vehicle depart="164.00" id="205">
        <route edges="597602756#0"/>
    </vehicle>
    <vehicle depart="164.80" id="206">
        <route edges="597602756#0"/>
    </vehicle>
    <vehicle depart="165.60" id="207">
        <route edges="597602756#0"/>
    </vehicle>
    <vehicle depart="166.40" id="208">
        <route edges="597602756#0"/>
    </vehicle>
    <vehicle depart="167.20" id="209">
        <route edges="597602756#0"/>
    </vehicle>
    <vehicle depart="168.00" id="210">
        <route edges="260998164#3"/>
    </vehicle>
    <vehicle depart="168.80" id="211">
        <route edges="260998164#3"/>
    </vehicle>
    <vehicle depart="169.60" id="212">
        <route edges="260998164#3"/>
    </vehicle>
    <vehicle depart="170.40" id="213">
        <route edges="44884008#2"/>
    </vehicle>
    <vehicle depart="171.20" id="214">
        <route edges="15420484#2"/>
    </vehicle>
    <vehicle depart="172.00" id="215">
        <route edges="597602756#0"/>
    </vehicle>
    <vehicle depart="172.80" id="216">
        <route edges="15420484#2"/>
    </vehicle>
    <vehicle depart="173.60" id="217">
        <route edges="597602756#0"/>
    </vehicle>
    <vehicle depart="174.40" id="218">
        <route edges="15420484#2"/>
    </vehicle>
    <vehicle depart="175.20" id="219">
        <route edges="597602756#0"/>
    </vehicle>
    <vehicle depart="176.00" id="220">
        <route edges="15420484#2"/>
    </vehicle>
    <vehicle depart="176.80" id="221">
        <route edges="597602756#0"/>
    </vehicle>
    <vehicle depart="177.60" id="222">
        <route edges="15420484#2"/>
    </vehicle>
    <vehicle depart="178.40" id="223">
        <route edges="597602756#0"/>
    </vehicle>
    <vehicle depart="179.20" id="224">
        <route edges="597602756#0"/>
    </vehicle>
    <vehicle depart="180.00" id="225">
        <route edges="597602756#0"/>
    </vehicle>
    <vehicle depart="180.80" id="226">
        <route edges="597602756#0"/>
    </vehicle>
    <vehicle depart="181.60" id="227">
        <route edges="597602756#0"/>
    </vehicle>
    <vehicle depart="182.40" id="228">
        <route edges="597602756#0"/>
    </vehicle>
    <vehicle depart="183.20" id="229">
        <route edges="597602756#0"/>
    </vehicle>
    <vehicle depart="184.00" id="230">
        <route edges="260998164#3"/>
    </vehicle>
    <vehicle depart="184.80" id="231">
        <route edges="260998164#3"/>
    </vehicle>
    <vehicle depart="185.60" id="232">
        <route edges="260998164#3"/>
    </vehicle>
    <vehicle depart="186.40" id="233">
        <route edges="44884008#2"/>
    </vehicle>
    <vehicle depart="187.20" id="234">
        <route edges="15420484#2"/>
    </vehicle>
    <vehicle depart="188.00" id="235">
        <route edges="597602756#0"/>
    </vehicle>
    <vehicle depart="188.80" id="236">
        <route edges="15420484#2"/>
    </vehicle>
    <vehicle depart="189.60" id="237">
        <route edges="597602756#0"/>
    </vehicle>
    <vehicle depart="190.40" id="238">
        <route edges="15420484#2"/>
    </vehicle>
    <vehicle depart="191.20" id="239">
        <route edges="597602756#0"/>
    </vehicle>
    <vehicle depart="192.00" id="240">
        <route edges="15420484#2"/>
    </vehicle>
    <vehicle depart="192.80" id="241">
        <route edges="597602756#0"/>
    </vehicle>
    <vehicle depart="193.60" id="242">
        <route edges="15420484#2"/>
    </vehicle>
    <vehicle depart="194.40" id="243">
        <route edges="597602756#0"/>
    </vehicle>
    <vehicle depart="195.20" id="244">
        <route edges="597602756#0"/>
    </vehicle>
    <vehicle depart="198.40" id="248">
        <route edges="597602756#0"/>
    </vehicle>
    <vehicle depart="199.20" id="249">
        <route edges="597602756#0"/>
    </vehicle>
    <vehicle depart="200.00" id="250">
        <route edges="597602756#0"/>
    </vehicle>
    <vehicle depart="200.80" id="251">
        <route edges="597602756#0"/>
    </vehicle>
    <vehicle depart="201.60" id="252">
        <route edges="597602756#0"/>
    </vehicle>
    <vehicle depart="203.20" id="254">
        <route edges="260998164#3"/>
    </vehicle>
    <vehicle depart="204.00" id="255">
        <route edges="260998164#3"/>
    </vehicle>
    <vehicle depart="204.80" id="256">
        <route edges="260998164#3"/>
    </vehicle>
    <vehicle depart="205.60" id="257">
        <route edges="44884008#2"/>
    </vehicle>
    <vehicle depart="206.40" id="258">
        <route edges="15420484#2"/>
    </vehicle>
    <vehicle depart="207.20" id="259">
        <route edges="597602756#0"/>
    </vehicle>
    <vehicle depart="208.00" id="260">
        <route edges="15420484#2"/>
    </vehicle>
    <vehicle depart="208.80" id="261">
        <route edges="597602756#0"/>
    </vehicle>
    <vehicle depart="209.60" id="262">
        <route edges="15420484#2"/>
    </vehicle>
    <vehicle depart="210.40" id="263">
        <route edges="597602756#0"/>
    </vehicle>
    <vehicle depart="212.80" id="266">
        <route edges="15420484#2"/>
    </vehicle>
    <vehicle depart="213.60" id="267">
        <route edges="597602756#0"/>
    </vehicle>
    <vehicle depart="214.40" id="268">
        <route edges="15420484#2"/>
    </vehicle>
    <vehicle depart="215.20" id="269">
        <route edges="597602756#0"/>
    </vehicle>
    <vehicle depart="216.00" id="270">
        <route edges="597602756#0"/>
    </vehicle>
    <vehicle depart="216.80" id="271">
        <route edges="597602756#0"/>
    </vehicle>
    <vehicle depart="217.60" id="272">
        <route edges="597602756#0"/>
    </vehicle>
    <vehicle depart="218.40" id="273">
        <route edges="597602756#0"/>
    </vehicle>
    <vehicle depart="219.20" id="274">
        <route edges="597602756#0"/>
    </vehicle>
    <vehicle depart="220.00" id="275">
        <route edges="597602756#0"/>
    </vehicle>
    <vehicle depart="220.80" id="276">
        <route edges="260998164#3"/>
    </vehicle>
    <vehicle depart="221.60" id="277">
        <route edges="260998164#3"/>
    </vehicle>
    <vehicle depart="222.40" id="278">
        <route edges="260998164#3"/>
    </vehicle>
    <vehicle depart="223.20" id="279">
        <route edges="44884008#2"/>
    </vehicle>
    <vehicle depart="224.00" id="280">
        <route edges="15420484#2"/>
    </vehicle>
    <vehicle depart="224.80" id="281">
        <route edges="597602756#0"/>
    </vehicle>
    <vehicle depart="225.60" id="282">
        <route edges="15420484#2"/>
    </vehicle>
    <vehicle depart="226.40" id="283">
        <route edges="597602756#0"/>
    </vehicle>
    <vehicle depart="227.20" id="284">
        <route edges="15420484#2"/>
    </vehicle>
    <vehicle depart="228.00" id="285">
        <route edges="597602756#0"/>
    </vehicle>
    <vehicle depart="228.80" id="286">
        <route edges="15420484#2"/>
    </vehicle>
    <vehicle depart="229.60" id="287">
        <route edges="597602756#0"/>
    </vehicle>
    <vehicle depart="230.40" id="288">
        <route edges="15420484#2"/>
    </vehicle>
    <vehicle depart="231.20" id="289">
        <route edges="597602756#0"/>
    </vehicle>
    <vehicle depart="232.00" id="290">
        <route edges="597602756#0"/>
    </vehicle>
    <vehicle depart="232.80" id="291">
        <route edges="597602756#0"/>
    </vehicle>
    <vehicle depart="233.60" id="292">
        <route edges="597602756#0"/>
    </vehicle>
    <vehicle depart="234.40" id="293">
        <route edges="597602756#0"/>
    </vehicle>
    <vehicle depart="235.20" id="294">
        <route edges="597602756#0"/>
    </vehicle>
    <vehicle depart="236.00" id="295">
        <route edges="597602756#0"/>
    </vehicle>
    <vehicle depart="236.80" id="296">
        <route edges="260998164#3"/>
    </vehicle>
    <vehicle depart="237.60" id="297">
        <route edges="260998164#3"/>
    </vehicle>
    <vehicle depart="238.40" id="298">
        <route edges="260998164#3"/>
    </vehicle>
    <vehicle depart="239.20" id="299">
        <route edges="44884008#2"/>
    </vehicle>
    <vehicle depart="240.00" id="300">
        <route edges="15420484#2"/>
    </vehicle>
    <vehicle depart="240.80" id="301">
        <route edges="597602756#0"/>
    </vehicle>
    <vehicle depart="241.60" id="302">
        <route edges="15420484#2"/>
    </vehicle>
    <vehicle depart="244.00" id="305">
        <route edges="597602756#0"/>
    </vehicle>
    <vehicle depart="244.80" id="306">
        <route edges="15420484#2"/>
    </vehicle>
    <vehicle depart="245.60" id="307">
        <route edges="597602756#0"/>
    </vehicle>
    <vehicle depart="246.40" id="308">
        <route edges="15420484#2"/>
    </vehicle>
    <vehicle depart="247.20" id="309">
        <route edges="597602756#0"/>
    </vehicle>
    <vehicle depart="249.60" id="312">
        <route edges="15420484#2"/>
    </vehicle>
    <vehicle depart="250.40" id="313">
        <route edges="597602756#0"/>
    </vehicle>
    <vehicle depart="251.20" id="314">
        <route edges="597602756#0"/>
    </vehicle>
    <vehicle depart="252.80" id="316">
        <route edges="597602756#0"/>
    </vehicle>
    <vehicle depart="253.60" id="317">
        <route edges="597602756#0"/>
    </vehicle>
    <vehicle depart="254.40" id="318">
        <route edges="597602756#0"/>
    </vehicle>
    <vehicle depart="255.20" id="319">
        <route edges="597602756#0"/>
    </vehicle>
    <vehicle depart="256.00" id="320">
        <route edges="597602756#0"/>
    </vehicle>
    <vehicle depart="256.80" id="321">
        <route edges="260998164#3"/>
    </vehicle>
    <vehicle depart="257.60" id="322">
        <route edges="260998164#3"/>
    </vehicle>
    <vehicle depart="258.40" id="323">
        <route edges="260998164#3"/>
    </vehicle>
    <vehicle depart="259.20" id="324">
        <route edges="44884008#2"/>
    </vehicle>
    <vehicle depart="260.80" id="326">
        <route edges="15420484#2"/>
    </vehicle>
    <vehicle depart="262.40" id="328">
        <route edges="597602756#0"/>
    </vehicle>
    <vehicle depart="263.20" id="329">
        <route edges="15420484#2"/>
    </vehicle>
    <vehicle depart="264.00" id="330">
        <route edges="597602756#0"/>
    </vehicle>
    <vehicle depart="264.80" id="331">
        <route edges="15420484#2"/>
    </vehicle>
    <vehicle depart="265.60" id="332">
        <route edges="597602756#0"/>
    </vehicle>
    <vehicle depart="266.40" id="333">
        <route edges="15420484#2"/>
    </vehicle>
    <vehicle depart="268.00" id="335">
        <route edges="597602756#0"/>
    </vehicle>
    <vehicle depart="268.80" id="336">
        <route edges="15420484#2"/>
    </vehicle>
    <vehicle depart="269.60" id="337">
        <route edges="597602756#0"/>
    </vehicle>
    <vehicle depart="271.20" id="339">
        <route edges="597602756#0"/>
    </vehicle>
    <vehicle depart="272.00" id="340">
        <route edges="597602756#0"/>
    </vehicle>
    <vehicle depart="272.80" id="341">
        <route edges="597602756#0"/>
    </vehicle>
    <vehicle depart="273.60" id="342">
        <route edges="597602756#0"/>
    </vehicle>
    <vehicle depart="274.40" id="343">
        <route edges="597602756#0"/>
    </vehicle>
    <vehicle depart="275.20" id="344">
        <route edges="597602756#0"/>
    </vehicle>
    <vehicle depart="276.00" id="345">
        <route edges="260998164#3"/>
    </vehicle>
    <vehicle depart="276.80" id="346">
        <route edges="260998164#3"/>
    </vehicle>
    <vehicle depart="277.60" id="347">
        <route edges="260998164#3"/>
    </vehicle>
    <vehicle depart="278.40" id="348">
        <route edges="44884008#2"/>
    </vehicle>
    <vehicle depart="279.20" id="349">
        <route edges="15420484#2"/>
    </vehicle>
    <vehicle depart="280.00" id="350">
        <route edges="597602756#0"/>
    </vehicle>
    <vehicle depart="280.80" id="351">
        <route edges="15420484#2"/>
    </vehicle>
    <vehicle depart="281.60" id="352">