<?xml version="1.0" encoding="UTF-8"?>

<!-- generated on Sun May 19 21:50:14 2019 by Eclipse SUMO netconvert Version 1.2.0
<configuration xmlns:xsi="http://www.w3.org/2001/XMLSchema-instance" xsi:noNamespaceSchemaLocation="http://sumo.dlr.de/xsd/netconvertConfiguration.xsd">

    <input>
        <osm-files value="map.osm"/>
    </input>

    <output>
        <output-file value="test.net.xml"/>
    </output>

    <projection>
        <proj.utm value="true"/>
    </projection>

</configuration>
-->

<net version="1.1" junctionCornerDetail="5" limitTurnSpeed="5.50" xmlns:xsi="http://www.w3.org/2001/XMLSchema-instance" xsi:noNamespaceSchemaLocation="http://sumo.dlr.de/xsd/net_file.xsd">

    <location netOffset="-272001.14,-3288863.70" convBoundary="0.00,0.00,2120.45,4871.88" origBoundary="-95.624497,29.671946,-95.274539,29.753031" projParameter="+proj=utm +zone=15 +ellps=WGS84 +datum=WGS84 +units=m +no_defs"/>

    <type id="highway.bridleway" priority="1" numLanes="1" speed="2.78" allow="pedestrian" oneway="1" width="2.00"/>
    <type id="highway.bus_guideway" priority="1" numLanes="1" speed="27.78" allow="bus" oneway="1"/>
    <type id="highway.cycleway" priority="1" numLanes="1" speed="8.33" allow="bicycle" oneway="0" width="1.00"/>
    <type id="highway.footway" priority="1" numLanes="1" speed="2.78" allow="pedestrian" oneway="1" width="2.00"/>
    <type id="highway.ford" priority="1" numLanes="1" speed="2.78" allow="army" oneway="0"/>
    <type id="highway.living_street" priority="2" numLanes="1" speed="2.78" disallow="tram rail_urban rail rail_electric ship" oneway="0"/>
    <type id="highway.motorway" priority="14" numLanes="2" speed="39.44" allow="private emergency authority army vip passenger hov taxi bus coach delivery truck trailer motorcycle evehicle custom1 custom2" oneway="1"/>
    <type id="highway.motorway_link" priority="9" numLanes="1" speed="22.22" allow="private emergency authority army vip passenger hov taxi bus coach delivery truck trailer motorcycle evehicle custom1 custom2" oneway="1"/>
    <type id="highway.path" priority="1" numLanes="1" speed="2.78" allow="bicycle pedestrian" oneway="1" width="2.00"/>
    <type id="highway.pedestrian" priority="1" numLanes="1" speed="2.78" allow="pedestrian" oneway="1" width="2.00"/>
    <type id="highway.primary" priority="12" numLanes="2" speed="27.78" disallow="tram rail_urban rail rail_electric ship" oneway="0"/>
    <type id="highway.primary_link" priority="7" numLanes="1" speed="22.22" disallow="tram rail_urban rail rail_electric ship" oneway="0"/>
    <type id="highway.raceway" priority="15" numLanes="2" speed="83.33" allow="vip" oneway="0"/>
    <type id="highway.residential" priority="3" numLanes="1" speed="13.89" disallow="tram rail_urban rail rail_electric ship" oneway="0"/>
    <type id="highway.secondary" priority="11" numLanes="2" speed="27.78" disallow="tram rail_urban rail rail_electric ship" oneway="0"/>
    <type id="highway.secondary_link" priority="6" numLanes="1" speed="22.22" disallow="tram rail_urban rail rail_electric ship" oneway="0"/>
    <type id="highway.service" priority="1" numLanes="1" speed="5.56" allow="delivery bicycle pedestrian" oneway="0"/>
    <type id="highway.stairs" priority="1" numLanes="1" speed="1.39" allow="pedestrian" oneway="1" width="2.00"/>
    <type id="highway.step" priority="1" numLanes="1" speed="1.39" allow="pedestrian" oneway="1" width="2.00"/>
    <type id="highway.steps" priority="1" numLanes="1" speed="1.39" allow="pedestrian" oneway="1" width="2.00"/>
    <type id="highway.tertiary" priority="10" numLanes="1" speed="22.22" disallow="tram rail_urban rail rail_electric ship" oneway="0"/>
    <type id="highway.tertiary_link" priority="5" numLanes="1" speed="22.22" disallow="tram rail_urban rail rail_electric ship" oneway="0"/>
    <type id="highway.track" priority="1" numLanes="1" speed="5.56" disallow="tram rail_urban rail rail_electric ship" oneway="0"/>
    <type id="highway.trunk" priority="13" numLanes="2" speed="27.78" disallow="tram rail_urban rail rail_electric bicycle pedestrian ship" oneway="0"/>
    <type id="highway.trunk_link" priority="8" numLanes="1" speed="22.22" disallow="tram rail_urban rail rail_electric bicycle pedestrian ship" oneway="0"/>
    <type id="highway.unclassified" priority="4" numLanes="1" speed="13.89" disallow="tram rail_urban rail rail_electric ship" oneway="0"/>
    <type id="highway.unsurfaced" priority="1" numLanes="1" speed="8.33" disallow="tram rail_urban rail rail_electric ship" oneway="0"/>
    <type id="railway.light_rail" priority="19" numLanes="1" speed="27.78" allow="rail_urban" oneway="1"/>
    <type id="railway.preserved" priority="16" numLanes="1" speed="27.78" allow="rail" oneway="1"/>
    <type id="railway.rail" priority="20" numLanes="1" speed="83.33" allow="rail rail_electric" oneway="1"/>
    <type id="railway.subway" priority="18" numLanes="1" speed="27.78" allow="rail_urban" oneway="1"/>
    <type id="railway.tram" priority="17" numLanes="1" speed="13.89" allow="tram" oneway="1"/>

    <edge id=":151768718_0" function="internal">
        <lane id=":151768718_0_0" index="0" allow="delivery bicycle pedestrian" speed="3.65" length="4.67" shape="1614.39,1133.44 1614.04,1134.84 1613.43,1135.49 1612.54,1135.39 1611.38,1134.53"/>
    </edge>
    <edge id=":151768733_0" function="internal">
        <lane id=":151768733_0_0" index="0" allow="delivery bicycle pedestrian" speed="5.56" length="9.45" shape="1548.26,958.01 1545.02,949.13"/>
    </edge>
    <edge id=":151768733_1" function="internal">
        <lane id=":151768733_1_0" index="0" allow="delivery bicycle pedestrian" speed="5.56" length="10.14" shape="1548.26,958.01 1547.86,955.71 1548.37,953.52 1549.79,951.44 1552.12,949.49"/>
    </edge>
    <edge id=":151768733_2" function="internal">
        <lane id=":151768733_2_0" index="0" allow="delivery bicycle pedestrian" speed="3.65" length="4.67" shape="1548.26,958.01 1548.61,956.61 1549.23,955.97 1550.11,956.07 1551.27,956.93"/>
    </edge>
    <edge id=":151768733_3" function="internal">
        <lane id=":151768733_3_0" index="0" allow="delivery bicycle pedestrian" speed="5.56" length="5.67" shape="1553.71,952.27 1552.32,953.41 1551.45,954.57 1551.10,955.74 1551.27,956.93"/>
    </edge>
    <edge id=":151768733_4" function="internal">
        <lane id=":151768733_4_0" index="0" allow="delivery bicycle pedestrian" speed="5.56" length="11.26" shape="1553.71,952.27 1550.91,953.62 1548.53,953.54 1546.57,952.05 1545.02,949.13"/>
    </edge>
    <edge id=":151768733_5" function="internal">
        <lane id=":151768733_5_0" index="0" allow="delivery bicycle pedestrian" speed="3.65" length="4.69" shape="1553.71,952.27 1552.27,952.17 1551.52,951.68 1551.47,950.78 1552.12,949.49"/>
    </edge>
    <edge id=":151768733_6" function="internal">
        <lane id=":151768733_6_0" index="0" allow="delivery bicycle pedestrian" speed="4.81" length="5.30" shape="1548.02,948.02 1548.75,949.39 1549.67,950.09 1550.80,950.12 1552.12,949.49"/>
    </edge>
    <edge id=":151768733_7" function="internal">
        <lane id=":151768733_7_0" index="0" allow="delivery bicycle pedestrian" speed="5.56" length="9.48" shape="1548.02,948.02 1551.27,956.93"/>
    </edge>
    <edge id=":151768733_8" function="internal">
        <lane id=":151768733_8_0" index="0" allow="delivery bicycle pedestrian" speed="3.65" length="4.67" shape="1548.02,948.02 1547.68,949.43 1547.07,950.08 1546.18,949.98 1545.02,949.13"/>
    </edge>
    <edge id=":151768736_0" function="internal">
        <lane id=":151768736_0_0" index="0" allow="delivery bicycle pedestrian" speed="5.56" length="5.08" shape="1487.78,794.75 1487.43,793.70 1486.93,792.28 1486.31,790.95 1485.64,790.21"/>
    </edge>
    <edge id=":151768736_1" function="internal">
        <lane id=":151768736_1_0" index="0" allow="delivery bicycle pedestrian" speed="3.65" length="2.34" shape="1487.78,794.75 1488.11,793.35 1488.72,792.70"/>
    </edge>
    <edge id=":151768736_4" function="internal">
        <lane id=":151768736_4_0" index="0" allow="delivery bicycle pedestrian" speed="3.65" length="2.34" shape="1488.72,792.70 1489.61,792.79 1490.78,793.64"/>
    </edge>
    <edge id=":151768736_2" function="internal">
        <lane id=":151768736_2_0" index="0" allow="delivery bicycle pedestrian" speed="5.56" length="5.49" shape="1488.57,788.62 1489.30,790.07 1489.78,791.08 1490.20,792.11 1490.78,793.64"/>
    </edge>
    <edge id=":151768736_3" function="internal">
        <lane id=":151768736_3_0" index="0" allow="delivery bicycle pedestrian" speed="4.09" length="2.29" shape="1488.57,788.62 1488.43,790.12 1487.99,790.76"/>
    </edge>
    <edge id=":151768736_5" function="internal">
        <lane id=":151768736_5_0" index="0" allow="delivery bicycle pedestrian" speed="4.09" length="2.58" shape="1487.99,790.76 1487.90,790.88 1486.97,790.91 1485.64,790.21"/>
    </edge>
    <edge id=":151768778_0" function="internal">
        <lane id=":151768778_0_0" index="0" disallow="tram rail_urban rail rail_electric ship" speed="7.09" length="10.97" shape="1187.87,878.97 1186.26,875.88 1184.37,873.97 1182.19,873.25 1179.73,873.71"/>
    </edge>
    <edge id=":151768778_1" function="internal">
        <lane id=":151768778_1_0" index="0" disallow="tram rail_urban rail rail_electric ship" speed="8.45" length="16.19" shape="1187.87,878.97 1186.58,874.24 1186.86,870.40 1188.71,867.47 1192.12,865.44"/>
    </edge>
    <edge id=":151768778_2" function="internal">
        <lane id=":151768778_2_0" index="0" allow="delivery bicycle pedestrian" speed="3.65" length="2.60" shape="1187.87,878.97 1188.17,877.56 1188.77,876.89 1189.02,876.91"/>
    </edge>
    <edge id=":151768778_9" function="internal">
        <lane id=":151768778_9_0" index="0" allow="delivery bicycle pedestrian" speed="3.65" length="2.08" shape="1189.02,876.91 1189.66,876.97 1190.85,877.78"/>
    </edge>
    <edge id=":151768778_3" function="internal">
        <lane id=":151768778_3_0" index="0" allow="delivery bicycle pedestrian" speed="6.22" length="8.30" shape="1194.37,871.44 1192.18,872.57 1190.85,874.01 1190.41,875.75 1190.85,877.78"/>
    </edge>
    <edge id=":151768778_4" function="internal">
        <lane id=":151768778_4_0" index="0" disallow="tram rail_urban rail rail_electric ship" speed="27.78" length="14.89" shape="1194.37,871.44 1189.81,872.63 1186.19,872.85 1183.00,872.93 1179.73,873.71"/>
    </edge>
    <edge id=":151768778_5" function="internal">
        <lane id=":151768778_5_0" index="0" disallow="tram rail_urban rail rail_electric ship" speed="3.65" length="2.57" shape="1193.25,868.44 1191.84,868.11 1191.19,867.50 1191.21,867.28"/>
    </edge>
    <edge id=":151768778_10" function="internal">
        <lane id=":151768778_10_0" index="0" disallow="tram rail_urban rail rail_electric ship" speed="3.65" length="2.11" shape="1191.21,867.28 1191.28,866.61 1192.12,865.44"/>
    </edge>
    <edge id=":151768778_6" function="internal">
        <lane id=":151768778_6_0" index="0" disallow="tram rail_urban rail rail_electric ship" speed="27.78" length="15.06" shape="1177.33,867.78 1181.91,866.47 1185.58,866.22 1188.81,866.15 1192.12,865.44"/>
    </edge>
    <edge id=":151768778_7" function="internal">
        <lane id=":151768778_7_0" index="0" allow="delivery bicycle pedestrian" speed="8.48" length="7.96" shape="1178.53,870.74 1182.37,869.94 1185.70,870.85 1186.13,871.25"/>
    </edge>
    <edge id=":151768778_8" function="internal">
        <lane id=":151768778_8_0" index="0" disallow="tram rail_urban rail rail_electric ship" speed="3.65" length="2.57" shape="1178.53,870.74 1179.95,871.03 1180.62,871.63 1180.60,871.86"/>
    </edge>
    <edge id=":151768778_11" function="internal">
        <lane id=":151768778_11_0" index="0" allow="delivery bicycle pedestrian" speed="8.48" length="8.17" shape="1186.13,871.25 1188.52,873.46 1190.85,877.78"/>
    </edge>
    <edge id=":151768778_12" function="internal">
        <lane id=":151768778_12_0" index="0" disallow="tram rail_urban rail rail_electric ship" speed="3.65" length="2.10" shape="1180.60,871.86 1180.55,872.52 1179.73,873.71"/>
    </edge>
    <edge id=":151910805_0" function="internal">
        <lane id=":151910805_0_0" index="0" allow="delivery bicycle pedestrian" speed="5.56" length="7.33" shape="949.56,939.38 948.56,937.08 947.52,935.37 946.44,934.23 945.32,933.66"/>
    </edge>
    <edge id=":151910805_1" function="internal">
        <lane id=":151910805_1_0" index="0" allow="delivery bicycle pedestrian" speed="5.56" length="6.17" shape="949.56,939.38 947.35,933.61"/>
    </edge>
    <edge id=":151910805_2" function="internal">
        <lane id=":151910805_2_0" index="0" allow="delivery bicycle pedestrian" speed="3.65" length="4.67" shape="949.56,939.38 949.88,937.97 950.48,937.31 951.37,937.40 952.55,938.24"/>
    </edge>
    <edge id=":151910805_3" function="internal">
        <lane id=":151910805_3_0" index="0" allow="delivery bicycle pedestrian" speed="5.56" length="6.05" shape="950.39,932.59 952.55,938.24"/>
    </edge>
    <edge id=":151910805_4" function="internal">
        <lane id=":151910805_4_0" index="0" allow="delivery bicycle pedestrian" speed="4.77" length="6.27" shape="950.39,932.59 950.39,933.60 949.55,934.12 947.86,934.14 945.32,933.66"/>
    </edge>
    <edge id=":151910805_5" function="internal">
        <lane id=":151910805_5_0" index="0" allow="delivery bicycle pedestrian" speed="3.65" length="4.67" shape="950.39,932.59 950.01,933.98 949.38,934.61 948.50,934.49 947.35,933.61"/>
    </edge>
    <edge id=":151910805_6" function="internal">
        <lane id=":151910805_6_0" index="0" allow="delivery bicycle pedestrian" speed="3.76" length="3.31" shape="946.09,930.55 947.35,933.61"/>
    </edge>
    <edge id=":151910805_7" function="internal">
        <lane id=":151910805_7_0" index="0" allow="delivery bicycle pedestrian" speed="5.56" length="10.40" shape="946.09,930.55 947.95,931.39 949.65,932.95 951.18,935.24 952.55,938.24"/>
    </edge>
    <edge id=":151910805_8" function="internal">
        <lane id=":151910805_8_0" index="0" allow="delivery bicycle pedestrian" speed="3.65" length="4.67" shape="946.09,930.55 947.06,931.62 947.26,932.49 946.68,933.17 945.32,933.66"/>
    </edge>
    <edge id=":151926935_0" function="internal">
        <lane id=":151926935_0_0" index="0" allow="delivery bicycle pedestrian" speed="3.90" length="2.65" shape="1487.89,830.01 1487.54,829.36 1487.08,828.99 1486.49,828.90 1485.78,829.08"/>
    </edge>
    <edge id=":151926935_1" function="internal">
        <lane id=":151926935_1_0" index="0" allow="delivery bicycle pedestrian" speed="5.56" length="7.96" shape="1484.57,826.12 1486.69,825.58 1488.46,825.87 1489.86,826.98 1490.90,828.91"/>
    </edge>
    <edge id=":151926939_0" function="internal">
        <lane id=":151926939_0_0" index="0" allow="delivery bicycle pedestrian" speed="5.56" length="8.60" shape="1431.49,851.33 1429.12,852.30 1427.53,853.02 1426.00,853.87 1423.83,855.22"/>
    </edge>
    <edge id=":151926939_1" function="internal">
        <lane id=":151926939_1_0" index="0" allow="delivery bicycle pedestrian" speed="5.56" length="10.33" shape="1431.49,851.33 1428.73,852.03 1426.44,851.65 1424.61,850.22 1423.26,847.72"/>
    </edge>
    <edge id=":151926939_2" function="internal">
        <lane id=":151926939_2_0" index="0" allow="delivery bicycle pedestrian" speed="3.65" length="4.67" shape="1431.49,851.33 1430.07,851.05 1429.40,850.46 1429.47,849.57 1430.27,848.37"/>
    </edge>
    <edge id=":151926939_3" function="internal">
        <lane id=":151926939_3_0" index="0" allow="delivery bicycle pedestrian" speed="5.00" length="5.04" shape="1426.26,846.61 1426.92,847.83 1427.81,848.53 1428.93,848.71 1430.27,848.37"/>
    </edge>
    <edge id=":151926939_4" function="internal">
        <lane id=":151926939_4_0" index="0" allow="delivery bicycle pedestrian" speed="5.56" length="9.79" shape="1426.26,846.61 1426.90,849.29 1426.71,851.62 1425.69,853.60 1423.83,855.22"/>
    </edge>
    <edge id=":151926939_5" function="internal">
        <lane id=":151926939_5_0" index="0" allow="delivery bicycle pedestrian" speed="3.65" length="4.67" shape="1426.26,846.61 1425.92,848.01 1425.31,848.66 1424.42,848.56 1423.26,847.72"/>
    </edge>
    <edge id=":151926939_6" function="internal">
        <lane id=":151926939_6_0" index="0" allow="delivery bicycle pedestrian" speed="5.56" length="5.38" shape="1422.12,852.51 1423.07,851.65 1423.58,850.57 1423.64,849.25 1423.26,847.72"/>
    </edge>
    <edge id=":151926939_7" function="internal">
        <lane id=":151926939_7_0" index="0" allow="delivery bicycle pedestrian" speed="5.56" length="9.17" shape="1422.12,852.51 1424.43,851.08 1426.06,850.17 1427.76,849.40 1430.27,848.37"/>
    </edge>
    <edge id=":151926939_8" function="internal">
        <lane id=":151926939_8_0" index="0" allow="delivery bicycle pedestrian" speed="3.65" length="4.67" shape="1422.12,852.51 1423.56,852.55 1424.32,853.01 1424.42,853.90 1423.83,855.22"/>
    </edge>
    <edge id=":151927022_0" function="internal">
        <lane id=":151927022_0_0" index="0" disallow="tram rail_urban rail rail_electric ship" speed="4.94" length="6.12" shape="1648.21,705.43 1648.00,707.49 1648.35,708.87 1649.26,709.58 1650.73,709.62"/>
    </edge>
    <edge id=":151927022_1" function="internal">
        <lane id=":151927022_1_0" index="0" disallow="tram rail_urban rail rail_electric ship" speed="27.78" length="13.60" shape="1648.21,705.43 1647.37,709.48 1646.68,712.23 1645.71,714.90 1644.09,718.70"/>
        <lane id=":151927022_1_1" index="1" disallow="tram rail_urban rail rail_electric ship" speed="27.78" length="13.60" shape="1645.07,704.79 1644.28,708.65 1643.62,711.26 1642.70,713.80 1641.16,717.41"/>
    </edge>
    <edge id=":151927022_3" function="internal">
        <lane id=":151927022_3_0" index="0" disallow="tram rail_urban rail rail_electric ship" speed="27.78" length="12.07" shape="1638.82,711.54 1650.73,709.62"/>
        <lane id=":151927022_3_1" index="1" disallow="tram rail_urban rail rail_electric ship" speed="27.78" length="12.07" shape="1639.30,714.70 1651.22,712.78"/>
    </edge>
    <edge id=":151927022_5" function="internal">
        <lane id=":151927022_5_0" index="0" disallow="tram rail_urban rail rail_electric ship" speed="4.22" length="4.57" shape="1639.30,714.70 1640.64,714.69 1641.39,715.13 1641.57,716.04 1641.16,717.41"/>
    </edge>
    <edge id=":151929398_0" function="internal">
        <lane id=":151929398_0_0" index="0" allow="delivery bicycle pedestrian" speed="5.03" length="5.01" shape="1584.83,469.65 1584.18,468.43 1583.30,467.72 1582.19,467.51 1580.85,467.81"/>
    </edge>
    <edge id=":151929398_1" function="internal">
        <lane id=":151929398_1_0" index="0" allow="delivery bicycle pedestrian" speed="5.56" length="10.12" shape="1584.83,469.65 1584.25,466.92 1584.66,464.65 1586.05,462.84 1588.43,461.48"/>
    </edge>
    <edge id=":151929398_2" function="internal">
        <lane id=":151929398_2_0" index="0" allow="delivery bicycle pedestrian" speed="3.65" length="4.67" shape="1584.83,469.65 1585.17,468.25 1585.79,467.60 1586.68,467.70 1587.84,468.56"/>
    </edge>
    <edge id=":151929398_3" function="internal">
        <lane id=":151929398_3_0" index="0" allow="delivery bicycle pedestrian" speed="5.11" length="5.06" shape="1589.60,464.46 1588.42,465.13 1587.74,466.04 1587.54,467.18 1587.84,468.56"/>
    </edge>
    <edge id=":151929398_4" function="internal">
        <lane id=":151929398_4_0" index="0" allow="delivery bicycle pedestrian" speed="5.56" length="9.37" shape="1589.60,464.46 1580.85,467.81"/>
    </edge>
    <edge id=":151929398_5" function="internal">
        <lane id=":151929398_5_0" index="0" allow="delivery bicycle pedestrian" speed="3.65" length="4.67" shape="1589.60,464.46 1588.19,464.15 1587.53,463.55 1587.61,462.66 1588.43,461.48"/>
    </edge>
    <edge id=":151929398_6" function="internal">
        <lane id=":151929398_6_0" index="0" allow="delivery bicycle pedestrian" speed="5.56" length="9.31" shape="1579.73,464.81 1588.43,461.48"/>
    </edge>
    <edge id=":151929398_7" function="internal">
        <lane id=":151929398_7_0" index="0" allow="delivery bicycle pedestrian" speed="5.56" length="10.21" shape="1579.73,464.81 1582.47,464.21 1584.73,464.64 1586.52,466.09 1587.84,468.56"/>
    </edge>
    <edge id=":151929398_8" function="internal">
        <lane id=":151929398_8_0" index="0" allow="delivery bicycle pedestrian" speed="3.65" length="4.67" shape="1579.73,464.81 1581.14,465.14 1581.79,465.75 1581.69,466.64 1580.85,467.81"/>
    </edge>
    <edge id=":151929403_0" function="internal">
        <lane id=":151929403_0_0" index="0" allow="delivery bicycle pedestrian" speed="5.30" length="4.76" shape="1633.03,450.31 1632.19,449.35 1631.23,448.80 1630.12,448.69 1628.89,448.99"/>
    </edge>
    <edge id=":151929403_1" function="internal">
        <lane id=":151929403_1_0" index="0" allow="delivery bicycle pedestrian" speed="5.56" length="8.33" shape="1633.03,450.31 1631.91,448.20 1631.61,446.55 1631.74,444.78 1631.91,442.29"/>
    </edge>
    <edge id=":151929403_2" function="internal">
        <lane id=":151929403_2_0" index="0" allow="delivery bicycle pedestrian" speed="3.65" length="4.67" shape="1633.03,450.31 1633.04,448.86 1633.49,448.09 1634.38,447.99 1635.71,448.55"/>
    </edge>
    <edge id=":151929403_3" function="internal">
        <lane id=":151929403_3_0" index="0" allow="delivery bicycle pedestrian" speed="5.56" length="5.11" shape="1634.98,443.72 1634.64,444.83 1634.65,446.01 1635.00,447.25 1635.71,448.55"/>
    </edge>
    <edge id=":151929403_4" function="internal">
        <lane id=":151929403_4_0" index="0" allow="delivery bicycle pedestrian" speed="5.56" length="8.39" shape="1634.98,443.72 1633.82,445.87 1632.69,447.17 1631.18,448.05 1628.89,448.99"/>
    </edge>
    <edge id=":151929403_5" function="internal">
        <lane id=":151929403_5_0" index="0" allow="delivery bicycle pedestrian" speed="3.94" length="4.96" shape="1634.98,443.72 1633.68,444.52 1632.73,444.55 1632.14,443.80 1631.91,442.29"/>
    </edge>
    <edge id=":151929403_6" function="internal">
        <lane id=":151929403_6_0" index="0" allow="delivery bicycle pedestrian" speed="5.56" length="5.89" shape="1627.71,446.01 1629.54,445.16 1630.84,444.26 1631.63,443.30 1631.91,442.29"/>
    </edge>
    <edge id=":151929403_7" function="internal">
        <lane id=":151929403_7_0" index="0" allow="delivery bicycle pedestrian" speed="5.56" length="9.19" shape="1627.71,446.01 1630.10,445.43 1632.23,445.66 1634.10,446.70 1635.71,448.55"/>
    </edge>
    <edge id=":151929403_8" function="internal">
        <lane id=":151929403_8_0" index="0" allow="delivery bicycle pedestrian" speed="3.65" length="4.67" shape="1627.71,446.01 1629.12,446.32 1629.79,446.91 1629.71,447.80 1628.89,448.99"/>
    </edge>
    <edge id=":151929410_0" function="internal">
        <lane id=":151929410_0_0" index="0" allow="delivery bicycle pedestrian" speed="5.05" length="4.99" shape="1585.29,316.32 1584.63,315.13 1583.74,314.42 1582.63,314.22 1581.30,314.50"/>
    </edge>
    <edge id=":151929410_1" function="internal">
        <lane id=":151929410_1_0" index="0" allow="delivery bicycle pedestrian" speed="5.56" length="10.10" shape="1585.29,316.32 1584.68,313.62 1585.07,311.37 1586.47,309.56 1588.87,308.19"/>
    </edge>
    <edge id=":151929410_2" function="internal">
        <lane id=":151929410_2_0" index="0" allow="delivery bicycle pedestrian" speed="3.65" length="4.67" shape="1585.29,316.32 1585.61,314.91 1586.21,314.26 1587.10,314.35 1588.28,315.18"/>
    </edge>
    <edge id=":151929410_3" function="internal">
        <lane id=":151929410_3_0" index="0" allow="delivery bicycle pedestrian" speed="5.06" length="4.99" shape="1590.05,311.17 1588.86,311.84 1588.17,312.74 1587.98,313.85 1588.28,315.18"/>
    </edge>
    <edge id=":151929410_4" function="internal">
        <lane id=":151929410_4_0" index="0" allow="delivery bicycle pedestrian" speed="5.56" length="9.36" shape="1590.05,311.17 1581.30,314.50"/>
    </edge>
    <edge id=":151929410_5" function="internal">
        <lane id=":151929410_5_0" index="0" allow="delivery bicycle pedestrian" speed="3.65" length="4.67" shape="1590.05,311.17 1588.64,310.86 1587.97,310.27 1588.05,309.37 1588.87,308.19"/>
    </edge>
    <edge id=":151929410_6" function="internal">
        <lane id=":151929410_6_0" index="0" allow="delivery bicycle pedestrian" speed="5.56" length="9.29" shape="1580.19,311.50 1588.87,308.19"/>
    </edge>
    <edge id=":151929410_7" function="internal">
        <lane id=":151929410_7_0" index="0" allow="delivery bicycle pedestrian" speed="5.56" length="10.11" shape="1580.19,311.50 1582.90,310.92 1585.15,311.34 1586.94,312.76 1588.28,315.18"/>
    </edge>
    <edge id=":151929410_8" function="internal">
        <lane id=":151929410_8_0" index="0" allow="delivery bicycle pedestrian" speed="3.65" length="4.67" shape="1580.19,311.50 1581.59,311.84 1582.25,312.45 1582.15,313.34 1581.30,314.50"/>
    </edge>
    <edge id=":151945840_0" function="internal">
        <lane id=":151945840_0_0" index="0" disallow="tram rail_urban rail rail_electric ship" speed="11.37" length="7.75" shape="1658.73,671.94 1658.08,674.06 1658.12,675.62 1658.58,677.21 1659.18,679.45"/>
    </edge>
    <edge id=":151945840_1" function="internal">
        <lane id=":151945840_1_0" index="0" disallow="tram rail_urban rail rail_electric ship" speed="27.78" length="8.93" shape="1655.77,670.71 1655.18,673.16 1655.38,674.96 1655.68,676.79 1655.36,679.33"/>
        <lane id=":151945840_1_1" index="1" disallow="tram rail_urban rail rail_electric ship" speed="27.78" length="8.93" shape="1652.82,669.49 1652.18,672.04 1652.35,673.91 1652.63,675.82 1652.28,678.47"/>
    </edge>
    <edge id=":151945912_0" function="internal">
        <lane id=":151945912_0_0" index="0" allow="delivery bicycle pedestrian" speed="3.65" length="4.67" shape="1430.31,541.57 1428.90,541.25 1428.24,540.64 1428.33,539.75 1429.17,538.58"/>
    </edge>
    <edge id=":151945930_0" function="internal">
        <lane id=":151945930_0_0" index="0" disallow="tram rail_urban rail rail_electric ship" speed="22.22" length="5.99" shape="1530.89,487.75 1528.92,482.10"/>
    </edge>
    <edge id=":151945930_1" function="internal">
        <lane id=":151945930_1_0" index="0" disallow="tram rail_urban rail rail_electric ship" speed="3.65" length="2.34" shape="1530.89,487.75 1531.28,486.36 1531.92,485.74"/>
    </edge>
    <edge id=":151945930_6" function="internal">
        <lane id=":151945930_6_0" index="0" disallow="tram rail_urban rail rail_electric ship" speed="3.65" length="2.34" shape="1531.92,485.74 1532.80,485.87 1533.93,486.77"/>
    </edge>
    <edge id=":151945930_2" function="internal">
        <lane id=":151945930_2_0" index="0" disallow="tram rail_urban rail rail_electric ship" speed="5.13" length="5.01" shape="1535.91,482.79 1534.70,483.45 1533.96,484.34 1533.71,485.44 1533.93,486.77"/>
    </edge>
    <edge id=":151945930_3" function="internal">
        <lane id=":151945930_3_0" index="0" disallow="tram rail_urban rail rail_electric ship" speed="6.07" length="7.78" shape="1535.91,482.79 1533.26,483.59 1531.21,483.74 1529.76,483.24 1528.92,482.10"/>
    </edge>
    <edge id=":151945930_4" function="internal">
        <lane id=":151945930_4_0" index="0" disallow="tram rail_urban rail rail_electric ship" speed="22.22" length="6.13" shape="1531.92,480.98 1533.93,486.77"/>
    </edge>
    <edge id=":151945930_5" function="internal">
        <lane id=":151945930_5_0" index="0" disallow="tram rail_urban rail rail_electric ship" speed="3.65" length="2.34" shape="1531.92,480.98 1531.59,482.38 1530.98,483.04"/>
    </edge>
    <edge id=":151945930_7" function="internal">
        <lane id=":151945930_7_0" index="0" disallow="tram rail_urban rail rail_electric ship" speed="3.65" length="2.34" shape="1530.98,483.04 1530.09,482.94 1528.92,482.10"/>
    </edge>
    <edge id=":152019493_0" function="internal">
        <lane id=":152019493_0_0" index="0" disallow="tram rail_urban rail rail_electric ship" speed="27.78" length="10.53" shape="971.02,971.66 968.35,973.38 966.50,974.54 964.60,975.59 961.77,977.03"/>
        <lane id=":152019493_0_1" index="1" disallow="tram rail_urban rail rail_electric ship" speed="27.78" length="10.53" shape="969.29,968.97 966.70,970.64 964.92,971.75 963.08,972.78 960.34,974.17"/>
    </edge>
    <edge id=":152019493_2" function="internal">
        <lane id=":152019493_2_0" index="0" allow="delivery bicycle pedestrian" speed="7.47" length="4.91" shape="969.29,968.97 966.08,970.27 964.65,970.03"/>
    </edge>
    <edge id=":152019493_3" function="internal">
        <lane id=":152019493_3_0" index="0" disallow="tram rail_urban rail rail_electric ship" speed="3.65" length="2.34" shape="969.29,968.97 967.85,968.95 967.08,968.49"/>
    </edge>
    <edge id=":152019493_11" function="internal">
        <lane id=":152019493_11_0" index="0" allow="delivery bicycle pedestrian" speed="7.47" length="9.28" shape="964.65,970.03 963.25,969.79 960.80,967.54 958.74,963.51"/>
    </edge>
    <edge id=":152019493_12" function="internal">
        <lane id=":152019493_12_0" index="0" disallow="tram rail_urban rail rail_electric ship" speed="3.65" length="2.34" shape="967.08,968.49 966.98,967.60 967.56,966.28"/>
    </edge>
    <edge id=":152019493_4" function="internal">
        <lane id=":152019493_4_0" index="0" disallow="tram rail_urban rail rail_electric ship" speed="4.83" length="5.23" shape="961.69,962.27 962.40,963.55 963.33,964.20 964.47,964.21 965.83,963.59"/>
    </edge>
    <edge id=":152019493_5" function="internal">
        <lane id=":152019493_5_0" index="0" disallow="tram rail_urban rail rail_electric ship" speed="8.01" length="13.12" shape="961.69,962.27 962.95,966.55 963.15,969.96 962.27,972.50 960.34,974.17"/>
    </edge>