<configuration>

<input>
<net-file value="simple_grid1.net.xml"/>
<route-files value="str_sumo.rou.xml"/>
</input>
<output> <netstate-dump value="test_dump.xml" /> </output>
<time>
<begin value="0"/>
<end value="200000"/>
</time>

</configuration>
