<?xml version="1.0" encoding="UTF-8"?>

<!-- generated on Wed Jan 20 21:34:37 2021 by Eclipse SUMO netedit Version 1.2.0
<configuration xmlns:xsi="http://www.w3.org/2001/XMLSchema-instance" xsi:noNamespaceSchemaLocation="http://sumo.dlr.de/xsd/netconvertConfiguration.xsd">

    <output>
        <output-file value="/Users/chouyachou/Documents/Scheduling/Traffic/maps/complex_grid1.net.xml"/>
    </output>

    <processing>
        <offset.disable-normalization value="true"/>
    </processing>

    <junctions>
        <no-turnarounds value="true"/>
    </junctions>

</configuration>
-->

<net version="1.1" junctionCornerDetail="5" limitTurnSpeed="5.50" xmlns:xsi="http://www.w3.org/2001/XMLSchema-instance" xsi:noNamespaceSchemaLocation="http://sumo.dlr.de/xsd/net_file.xsd">

    <location netOffset="0.00,0.00" convBoundary="-247.73,-237.95,243.54,124.20" origBoundary="10000000000.00,10000000000.00,-10000000000.00,-10000000000.00" projParameter="!"/>

    <edge id=":gneJ12_0" function="internal">
        <lane id=":gneJ12_0_0" index="0" speed="13.89" length="17.80" shape="162.68,-95.64 162.48,-77.84"/>
    </edge>
    <edge id=":gneJ12_1" function="internal">
        <lane id=":gneJ12_1_0" index="0" speed="12.14" length="19.98" shape="162.68,-95.64 161.98,-91.33 159.90,-87.31 156.43,-83.56 151.57,-80.09"/>
    </edge>
    <edge id=":gneJ12_2" function="internal">
        <lane id=":gneJ12_2_0" index="0" speed="8.39" length="18.31" shape="162.68,-95.64 161.82,-91.46 159.25,-88.91 154.96,-87.99 148.96,-88.68"/>
    </edge>
    <edge id=":gneJ12_3" function="internal">
        <lane id=":gneJ12_3_0" index="0" speed="7.00" length="12.36" shape="149.65,-91.81 153.95,-91.24 157.02,-91.68 158.86,-93.15 159.48,-95.64"/>
    </edge>
    <edge id=":gneJ12_4" function="internal">
        <lane id=":gneJ12_4_0" index="0" speed="10.35" length="20.78" shape="149.65,-91.81 155.35,-89.86 159.39,-86.88 161.76,-82.87 162.48,-77.84"/>
    </edge>
    <edge id=":gneJ12_5" function="internal">
        <lane id=":gneJ12_5_0" index="0" speed="7.44" length="19.70" shape="149.65,-91.81 155.66,-89.78 157.98,-87.15 156.62,-83.92 151.57,-80.09"/>
    </edge>
    <edge id=":gneJ12_6" function="internal">
        <lane id=":gneJ12_6_0" index="0" speed="5.47" length="9.83" shape="149.92,-82.83 152.44,-84.74 153.12,-86.36 151.96,-87.67 148.96,-88.68"/>
    </edge>
    <edge id=":gneJ12_7" function="internal">
        <lane id=":gneJ12_7_0" index="0" speed="11.13" length="16.68" shape="149.92,-82.83 154.10,-85.78 157.09,-88.90 158.88,-92.18 159.48,-95.64"/>
    </edge>
    <edge id=":gneJ12_8" function="internal">
        <lane id=":gneJ12_8_0" index="0" speed="7.70" length="18.65" shape="149.92,-82.83 155.51,-85.40 159.47,-85.43 161.79,-82.90 162.48,-77.84"/>
    </edge>
    <edge id=":gneJ12_9" function="internal">
        <lane id=":gneJ12_9_0" index="0" speed="6.04" length="10.89" shape="159.28,-77.90 158.85,-80.62 157.42,-81.90 154.99,-81.72 151.57,-80.09"/>
    </edge>
    <edge id=":gneJ12_10" function="internal">
        <lane id=":gneJ12_10_0" index="0" speed="9.22" length="16.33" shape="159.28,-77.90 158.70,-81.75 156.79,-84.83 153.54,-87.14 148.96,-88.68"/>
    </edge>
    <edge id=":gneJ12_11" function="internal">
        <lane id=":gneJ12_11_0" index="0" speed="13.89" length="17.73" shape="159.28,-77.90 159.48,-95.64"/>
    </edge>
    <edge id=":gneJ13_0" function="internal">
        <lane id=":gneJ13_0_0" index="0" speed="7.95" length="10.15" shape="159.48,-174.17 159.18,-177.09 158.28,-179.42 156.79,-181.19 154.70,-182.38"/>
    </edge>
    <edge id=":gneJ13_1" function="internal">
        <lane id=":gneJ13_1_0" index="0" speed="7.84" length="14.56" shape="159.48,-174.17 160.06,-178.17 161.79,-180.91 164.67,-182.38 168.71,-182.58"/>
    </edge>
    <edge id=":gneJ13_2" function="internal">
        <lane id=":gneJ13_2_0" index="0" speed="6.31" length="9.04" shape="168.41,-179.39 165.90,-179.27 164.11,-178.35 163.04,-176.66 162.68,-174.17"/>
    </edge>
    <edge id=":gneJ13_3" function="internal">
        <lane id=":gneJ13_3_0" index="0" speed="13.89" length="14.08" shape="168.41,-179.39 164.83,-179.81 161.44,-180.40 158.12,-181.23 154.70,-182.38"/>
    </edge>
    <edge id=":gneJ13_4" function="internal">
        <lane id=":gneJ13_4_0" index="0" speed="13.89" length="13.23" shape="155.83,-185.37 159.11,-184.26 162.15,-183.49 165.25,-182.96 168.71,-182.58"/>
    </edge>
    <edge id=":gneJ13_5" function="internal">
        <lane id=":gneJ13_5_0" index="0" speed="9.26" length="5.14" shape="155.83,-185.37 158.82,-183.70 159.96,-182.42"/>
    </edge>
    <edge id=":gneJ13_6" function="internal">
        <lane id=":gneJ13_6_0" index="0" speed="9.26" length="8.90" shape="159.96,-182.42 160.97,-181.28 162.25,-178.10 162.68,-174.17"/>
    </edge>
    <edge id=":gneJ16_0" function="internal">
        <lane id=":gneJ16_0_0" index="0" speed="13.89" length="13.81" shape="37.19,-11.46 34.25,-9.44 31.78,-7.19 29.67,-4.60 27.80,-1.57"/>
    </edge>
    <edge id=":gneJ16_1" function="internal">
        <lane id=":gneJ16_1_0" index="0" speed="13.25" length="20.15" shape="37.19,-11.46 33.35,-9.93 28.82,-9.53 23.60,-10.26 17.68,-12.12"/>
    </edge>
    <edge id=":gneJ16_2" function="internal">
        <lane id=":gneJ16_2_0" index="0" speed="8.98" length="18.80" shape="37.19,-11.46 33.37,-10.21 29.68,-11.13 26.11,-14.20 22.65,-19.43"/>
    </edge>
    <edge id=":gneJ16_3" function="internal">
        <lane id=":gneJ16_3_0" index="0" speed="7.70" length="13.54" shape="25.47,-20.95 28.05,-16.90 30.59,-14.43 33.09,-13.53 35.54,-14.20"/>
    </edge>
    <edge id=":gneJ16_4" function="internal">
        <lane id=":gneJ16_4_0" index="0" speed="12.53" length="20.31" shape="25.47,-20.95 28.02,-15.27 29.26,-10.15 29.18,-5.58 27.80,-1.57"/>
    </edge>
    <edge id=":gneJ16_5" function="internal">
        <lane id=":gneJ16_5_0" index="0" speed="7.49" length="20.43" shape="25.47,-20.95 28.00,-14.79 27.55,-11.26 24.11,-10.37 17.68,-12.12"/>
    </edge>
    <edge id=":gneJ16_6" function="internal">
        <lane id=":gneJ16_6_0" index="0" speed="5.46" length="10.02" shape="18.83,-15.10 21.98,-14.24 23.67,-14.68 23.89,-16.41 22.65,-19.43"/>
    </edge>
    <edge id=":gneJ16_7" function="internal">
        <lane id=":gneJ16_7_0" index="0" speed="12.29" length="17.25" shape="18.83,-15.10 24.03,-13.44 28.55,-12.73 32.38,-12.99 35.54,-14.20"/>
    </edge>
    <edge id=":gneJ16_8" function="internal">
        <lane id=":gneJ16_8_0" index="0" speed="8.73" length="18.80" shape="18.83,-15.10 24.46,-12.30 27.83,-9.11 28.94,-5.53 27.80,-1.57"/>
    </edge>
    <edge id=":gneJ16_9" function="internal">
        <lane id=":gneJ16_9_0" index="0" speed="7.41" length="13.22" shape="24.99,-3.10 25.58,-5.58 24.56,-7.91 21.92,-10.09 17.68,-12.12"/>
    </edge>
    <edge id=":gneJ16_10" function="internal">
        <lane id=":gneJ16_10_0" index="0" speed="11.54" length="17.14" shape="24.99,-3.10 26.06,-6.35 26.03,-10.16 24.89,-14.52 22.65,-19.43"/>
    </edge>
    <edge id=":gneJ16_11" function="internal">
        <lane id=":gneJ16_11_0" index="0" speed="13.89" length="15.48" shape="24.99,-3.10 27.05,-6.32 29.56,-9.33 32.42,-12.00 35.54,-14.20"/>
    </edge>
    <edge id=":gneJ17_0" function="internal">
        <lane id=":gneJ17_0_0" index="0" speed="7.79" length="12.51" shape="-31.67,-120.40 -33.95,-123.93 -36.30,-126.13 -38.71,-127.03 -41.19,-126.60"/>
    </edge>
    <edge id=":gneJ17_1" function="internal">
        <lane id=":gneJ17_1_0" index="0" speed="12.91" length="9.32" shape="-31.67,-120.40 -33.88,-125.42 -34.74,-129.15"/>
    </edge>
    <edge id=":gneJ17_2" function="internal">
        <lane id=":gneJ17_2_0" index="0" speed="7.39" length="9.35" shape="-31.67,-120.40 -33.78,-125.77 -33.27,-129.17 -33.14,-129.23"/>
    </edge>
    <edge id=":gneJ17_12" function="internal">
        <lane id=":gneJ17_12_0" index="0" speed="12.91" length="9.74" shape="-34.74,-129.15 -34.97,-130.15 -34.92,-134.57 -33.74,-138.70"/>
    </edge>
    <edge id=":gneJ17_13" function="internal">
        <lane id=":gneJ17_13_0" index="0" speed="7.39" length="9.07" shape="-33.14,-129.23 -30.14,-130.59 -24.40,-130.03"/>
    </edge>
    <edge id=":gneJ17_3" function="internal">
        <lane id=":gneJ17_3_0" index="0" speed="5.51" length="9.54" shape="-25.08,-126.90 -28.06,-127.19 -29.68,-126.46 -29.94,-124.70 -28.85,-121.92"/>
    </edge>
    <edge id=":gneJ17_4" function="internal">
        <lane id=":gneJ17_4_0" index="0" speed="13.89" length="16.32" shape="-25.08,-126.90 -29.01,-127.59 -33.24,-127.90 -37.42,-127.63 -41.19,-126.60"/>
    </edge>
    <edge id=":gneJ17_5" function="internal">
        <lane id=":gneJ17_5_0" index="0" speed="8.25" length="17.41" shape="-25.08,-126.90 -30.36,-128.68 -33.56,-131.24 -34.69,-134.58 -33.74,-138.70"/>
    </edge>
    <edge id=":gneJ17_6" function="internal">
        <lane id=":gneJ17_6_0" index="0" speed="6.82" length="11.52" shape="-30.81,-137.41 -31.31,-134.91 -30.40,-132.84 -28.10,-131.21 -24.40,-130.03"/>
    </edge>
    <edge id=":gneJ17_7" function="internal">
        <lane id=":gneJ17_7_0" index="0" speed="11.92" length="16.15" shape="-30.81,-137.41 -31.76,-134.00 -31.75,-130.28 -30.78,-126.25 -28.85,-121.92"/>
    </edge>
    <edge id=":gneJ17_8" function="internal">
        <lane id=":gneJ17_8_0" index="0" speed="13.30" length="15.30" shape="-30.81,-137.41 -32.63,-134.07 -35.03,-131.03 -37.91,-128.48 -41.19,-126.60"/>
    </edge>
    <edge id=":gneJ17_9" function="internal">
        <lane id=":gneJ17_9_0" index="0" speed="12.28" length="13.00" shape="-42.45,-129.54 -39.44,-131.16 -37.13,-133.14 -35.30,-135.61 -33.74,-138.70"/>
    </edge>
    <edge id=":gneJ17_10" function="internal">
        <lane id=":gneJ17_10_0" index="0" speed="13.89" length="18.26" shape="-42.45,-129.54 -38.38,-130.60 -33.53,-130.93 -28.63,-130.68 -24.40,-130.03"/>
    </edge>
    <edge id=":gneJ17_11" function="internal">
        <lane id=":gneJ17_11_0" index="0" speed="9.07" length="17.31" shape="-42.45,-129.54 -38.71,-130.31 -35.19,-129.30 -31.91,-126.50 -28.85,-121.92"/>
    </edge>
    <edge id=":gneJ19_0" function="internal">
        <lane id=":gneJ19_0_0" index="0" speed="10.24" length="20.78" shape="-152.57,-69.76 -152.98,-74.95 -151.55,-79.41 -148.27,-83.13 -143.14,-86.10"/>
    </edge>
    <edge id=":gneJ19_1" function="internal">
        <lane id=":gneJ19_1_0" index="0" speed="7.61" length="9.95" shape="-152.57,-69.76 -153.05,-75.02 -151.40,-78.00 -150.17,-78.24"/>
    </edge>
    <edge id=":gneJ19_6" function="internal">
        <lane id=":gneJ19_6_0" index="0" speed="7.61" length="8.65" shape="-150.17,-78.24 -147.64,-78.73 -141.76,-77.18"/>
    </edge>
    <edge id=":gneJ19_2" function="internal">
        <lane id=":gneJ19_2_0" index="0" speed="5.89" length="10.54" shape="-142.92,-74.19 -146.39,-75.15 -148.65,-74.85 -149.67,-73.31 -149.46,-70.50"/>
    </edge>
    <edge id=":gneJ19_3" function="internal">
        <lane id=":gneJ19_3_0" index="0" speed="7.43" length="19.43" shape="-142.92,-74.19 -148.44,-77.07 -150.31,-80.01 -148.55,-83.02 -143.14,-86.10"/>
    </edge>
    <edge id=":gneJ19_4" function="internal">
        <lane id=":gneJ19_4_0" index="0" speed="5.47" length="9.77" shape="-141.88,-83.17 -144.59,-81.62 -145.48,-80.10 -144.54,-78.62 -141.76,-77.18"/>
    </edge>
    <edge id=":gneJ19_5" function="internal">
        <lane id=":gneJ19_5_0" index="0" speed="9.11" length="16.24" shape="-141.88,-83.17 -145.96,-80.82 -148.58,-77.92 -149.75,-74.49 -149.46,-70.50"/>
    </edge>
    <edge id=":gneJ20_0" function="internal">
        <lane id=":gneJ20_0_0" index="0" speed="3.91" length="2.48" shape="13.84,-235.38 13.18,-235.53 12.62,-235.43 12.16,-235.10 11.81,-234.53"/>
    </edge>
    <edge id=":gneJ20_1" function="internal">
        <lane id=":gneJ20_1_0" index="0" speed="6.08" length="7.44" shape="8.88,-235.81 9.94,-237.53 11.31,-238.54 12.99,-238.82 14.96,-238.38"/>
    </edge>
    <edge id=":gneJ3_0" function="internal">
        <lane id=":gneJ3_0_0" index="0" speed="13.89" length="14.21" shape="-100.96,113.52 -115.16,113.75"/>
    </edge>
    <edge id=":gneJ3_1" function="internal">
        <lane id=":gneJ3_1_0" index="0" speed="8.95" length="5.26" shape="-100.96,113.52 -104.45,112.89 -105.91,112.01"/>
    </edge>
    <edge id=":gneJ3_6" function="internal">
        <lane id=":gneJ3_6_0" index="0" speed="8.95" length="9.21" shape="-105.91,112.01 -107.26,111.18 -109.36,108.38 -110.77,104.50"/>
    </edge>
    <edge id=":gneJ3_2" function="internal">
        <lane id=":gneJ3_2_0" index="0" speed="7.61" length="10.23" shape="-107.66,103.75 -106.66,106.58 -105.19,108.62 -103.27,109.87 -100.88,110.33"/>
    </edge>
    <edge id=":gneJ3_3" function="internal">
        <lane id=":gneJ3_3_0" index="0" speed="7.70" length="14.96" shape="-107.66,103.75 -107.27,107.95 -108.39,111.02 -111.02,112.95 -115.16,113.75"/>
    </edge>
    <edge id=":gneJ3_4" function="internal">
        <lane id=":gneJ3_4_0" index="0" speed="6.14" length="9.06" shape="-115.31,110.55 -112.81,110.07 -111.22,108.90 -110.54,107.04 -110.77,104.50"/>
    </edge>
    <edge id=":gneJ3_5" function="internal">
        <lane id=":gneJ3_5_0" index="0" speed="13.89" length="14.43" shape="-115.31,110.55 -100.88,110.33"/>
    </edge>
    <edge id=":gneJ4_0" function="internal">
        <lane id=":gneJ4_0_0" index="0" speed="13.89" length="14.91" shape="-27.87,115.57 -42.77,114.87"/>
    </edge>
    <edge id=":gneJ4_1" function="internal">
        <lane id=":gneJ4_1_0" index="0" speed="7.45" length="6.24" shape="-27.87,115.57 -32.56,114.62 -33.68,113.70"/>
    </edge>
    <edge id=":gneJ4_6" function="internal">
        <lane id=":gneJ4_6_0" index="0" speed="7.45" length="10.00" shape="-33.68,113.70 -35.13,112.50 -35.56,109.20 -33.86,104.72"/>
    </edge>
    <edge id=":gneJ4_2" function="internal">
        <lane id=":gneJ4_2_0" index="0" speed="5.77" length="9.16" shape="-31.05,106.25 -32.01,108.78 -31.77,110.64 -30.32,111.84 -27.67,112.38"/>
    </edge>
    <edge id=":gneJ4_3" function="internal">
        <lane id=":gneJ4_3_0" index="0" speed="10.27" length="15.30" shape="-31.05,106.25 -33.58,110.08 -36.38,112.80 -39.44,114.39 -42.77,114.87"/>
    </edge>
    <edge id=":gneJ4_4" function="internal">
        <lane id=":gneJ4_4_0" index="0" speed="9.08" length="11.80" shape="-42.69,111.67 -40.27,111.28 -38.00,109.99 -35.86,107.80 -33.86,104.72"/>
    </edge>
    <edge id=":gneJ4_5" function="internal">
        <lane id=":gneJ4_5_0" index="0" speed="13.89" length="15.04" shape="-42.69,111.67 -27.67,112.38"/>
    </edge>
    <edge id=":gneJ5_0" function="internal">
        <lane id=":gneJ5_0_0" index="0" speed="7.31" length="2.79" shape="32.81,118.59 32.09,118.98 31.55,119.18 30.98,119.23 30.16,119.20"/>
    </edge>
    <edge id=":gneJ5_1" function="internal">
        <lane id=":gneJ5_1_0" index="0" speed="13.89" length="0.93" shape="30.36,116.00 30.64,116.01 30.83,116.00 31.00,115.93 31.25,115.80"/>
    </edge>
    <edge id=":gneJ6_0" function="internal">
        <lane id=":gneJ6_0_0" index="0" speed="8.32" length="10.37" shape="104.39,85.18 101.79,83.65 99.31,82.90 96.95,82.94 94.70,83.78"/>
    </edge>
    <edge id=":gneJ6_1" function="internal">
        <lane id=":gneJ6_1_0" index="0" speed="7.81" length="14.65" shape="104.39,85.18 101.47,82.33 100.29,79.31 100.86,76.12 103.17,72.75"/>
    </edge>
    <edge id=":gneJ6_2" function="internal">
        <lane id=":gneJ6_2_0" index="0" speed="6.27" length="9.04" shape="105.52,74.93 104.09,77.00 103.74,78.97 104.47,80.84 106.27,82.60"/>
    </edge>
    <edge id=":gneJ6_3" function="internal">
        <lane id=":gneJ6_3_0" index="0" speed="13.89" length="14.05" shape="105.52,74.93 103.01,77.51 100.47,79.81 97.75,81.88 94.70,83.78"/>
    </edge>
    <edge id=":gneJ6_4" function="internal">
        <lane id=":gneJ6_4_0" index="0" speed="13.89" length="13.05" shape="93.13,80.99 96.06,79.19 98.51,77.33 100.79,75.24 103.17,72.75"/>
    </edge>
    <edge id=":gneJ6_5" function="internal">
        <lane id=":gneJ6_5_0" index="0" speed="9.60" length="5.04" shape="93.13,80.99 96.27,79.79 97.95,79.72"/>
    </edge>
    <edge id=":gneJ6_6" function="internal">
        <lane id=":gneJ6_6_0" index="0" speed="9.60" length="9.00" shape="97.95,79.72 99.50,79.66 102.84,80.59 106.27,82.60"/>
    </edge>
    <edge id=":gneJ7_0" function="internal">
        <lane id=":gneJ7_0_0" index="0" speed="6.30" length="12.56" shape="162.14,117.76 161.72,121.61 160.31,123.56 157.91,123.59 154.52,121.71"/>
    </edge>
    <edge id=":gneJ7_1" function="internal">
        <lane id=":gneJ7_1_0" index="0" speed="4.02" length="4.19" shape="156.40,119.13 157.53,119.75 158.33,119.74 158.80,119.09 158.94,117.81"/>
    </edge>
    <edge id=":gneJ8_0" function="internal">
        <lane id=":gneJ8_0_0" index="0" speed="5.47" length="9.82" shape="157.56,26.78 157.17,23.65 156.11,22.25 154.39,22.59 152.01,24.65"/>
    </edge>
    <edge id=":gneJ8_1" function="internal">
        <lane id=":gneJ8_1_0" index="0" speed="13.89" length="17.26" shape="157.56,26.78 157.49,9.51"/>
    </edge>
    <edge id=":gneJ8_2" function="internal">
        <lane id=":gneJ8_2_0" index="0" speed="13.89" length="17.15" shape="160.69,9.58 160.76,26.73"/>
    </edge>
    <edge id=":gneJ8_3" function="internal">
        <lane id=":gneJ8_3_0" index="0" speed="13.89" length="17.67" shape="160.69,9.58 159.76,13.53 157.58,17.62 154.78,21.45 152.01,24.65"/>
    </edge>
    <edge id=":gneJ8_4" function="internal">
        <lane id=":gneJ8_4_0" index="0" speed="13.70" length="15.46" shape="149.66,22.48 152.30,19.61 154.81,16.50 156.70,13.13 157.49,9.51"/>
    </edge>
    <edge id=":gneJ8_5" function="internal">
        <lane id=":gneJ8_5_0" index="0" speed="7.44" length="19.63" shape="149.66,22.48 154.43,18.34 157.86,17.67 159.98,20.47 160.76,26.73"/>
    </edge>

    <edge id="-gneE1" from="gneJ4" to="gneJ3" priority="-1">
        <lane id="-gneE1_0" index="0" speed="13.89" length="58.21" shape="-42.77,114.87 -100.96,113.52"/>
    </edge>
    <edge id="-gneE10" from="gneJ13" to="gneJ12" priority="-1">
        <lane id="-gneE10_0" index="0" speed="13.89" length="78.53" shape="162.68,-174.17 162.68,-95.64"/>
    </edge>
    <edge id="-gneE11" from="gneJ14" to="gneJ13" priority="-1">
        <lane id="-gneE11_0" index="0" speed="13.89" length="75.31" shape="243.40,-172.38 168.41,-179.39"/>
    </edge>
    <edge id="-gneE12" from="gneJ8" to="gneJ6" priority="-1">
        <lane id="-gneE12_0" index="0" speed="13.89" length="68.47" shape="152.01,24.65 105.52,74.93"/>
    </edge>
    <edge id="-gneE14" from="gneJ12" to="gneJ16" priority="-1">
        <lane id="-gneE14_0" index="0" speed="13.89" length="133.39" shape="151.57,-80.09 37.19,-11.46"/>
    </edge>
    <edge id="-gneE15" from="gneJ16" to="gneJ4" priority="-1">
        <lane id="-gneE15_0" index="0" speed="13.89" length="122.83" shape="27.80,-1.57 -31.05,106.25"/>
    </edge>
    <edge id="-gneE16" from="gneJ17" to="gneJ16" priority="-1">
        <lane id="-gneE16_0" index="0" speed="13.89" length="114.65" shape="-28.85,-121.92 25.47,-20.95"/>
    </edge>
    <edge id="-gneE17" from="gneJ12" to="gneJ17" priority="-1">
        <lane id="-gneE17_0" index="0" speed="13.89" length="178.20" shape="148.96,-88.68 -25.08,-126.90"/>
    </edge>
    <edge id="-gneE18" from="gneJ19" to="gneJ3" priority="-1">
        <lane id="-gneE18_0" index="0" speed="13.89" length="179.20" shape="-149.46,-70.50 -107.66,103.75"/>
    </edge>
    <edge id="-gneE19" from="gneJ17" to="gneJ19" priority="-1">
        <lane id="-gneE19_0" index="0" speed="13.89" length="109.66" shape="-41.19,-126.60 -141.88,-83.17"/>
    </edge>
    <edge id="-gneE2" from="gneJ5" to="gneJ4" priority="-1">
        <lane id="-gneE2_0" index="0" speed="13.89" length="58.15" shape="30.16,119.20 -27.87,115.57"/>
    </edge>
    <edge id="-gneE20" from="gneJ20" to="gneJ17" priority="-1">
        <lane id="-gneE20_0" index="0" speed="13.89" length="106.05" shape="11.81,-234.53 -30.81,-137.41"/>
    </edge>
    <edge id="-gneE21" from="gneJ13" to="gneJ20" priority="-1">
        <lane id="-gneE21_0" index="0" speed="13.89" length="150.51" shape="154.70,-182.38 13.84,-235.38"/>
    </edge>
    <edge id="-gneE22" from="gneJ16" to="gneJ19" priority="-1">
        <lane id="-gneE22_0" index="0" speed="13.89" length="172.17" shape="17.68,-12.12 -142.92,-74.19"/>
    </edge>
    <edge id="-gneE24" from="gneJ3" to="gneJ22" priority="-1">
        <lane id="-gneE24_0" index="0" speed="13.89" length="132.64" shape="-115.16,113.75 -247.65,120.09"/>
    </edge>
    <edge id="-gneE3" from="gneJ6" to="gneJ5" priority="-1">
        <lane id="-gneE3_0" index="0" speed="13.89" length="71.00" shape="94.70,83.78 32.81,118.59"/>
    </edge>
    <edge id="-gneE4" from="gneJ7" to="gneJ6" priority="-1">
        <lane id="-gneE4_0" index="0" speed="13.89" length="62.03" shape="154.52,121.71 104.39,85.18"/>
    </edge>
    <edge id="-gneE5" from="gneJ8" to="gneJ7" priority="-1">
        <lane id="-gneE5_0" index="0" speed="13.89" length="91.04" shape="160.76,26.73 162.14,117.76"/>
    </edge>
    <edge id="-gneE9" from="gneJ12" to="gneJ8" priority="-1">
        <lane id="-gneE9_0" index="0" speed="13.89" length="87.44" shape="162.48,-77.84 160.69,9.58"/>
    </edge>
    <edge id="gneE1" from="gneJ3" to="gneJ4" priority="-1">
        <lane id="gneE1_0" index="0" speed="13.89" length="58.21" shape="-100.88,110.33 -42.69,111.67"/>
    </edge>
    <edge id="gneE10" from="gneJ12" to="gneJ13" priority="-1">
        <lane id="gneE10_0" index="0" speed="13.89" length="78.53" shape="159.48,-95.64 159.48,-174.17"/>
    </edge>
    <edge id="gneE11" from="gneJ13" to="gneJ14" priority="-1">
        <lane id="gneE11_0" index="0" speed="13.89" length="75.31" shape="168.71,-182.58 243.69,-175.57"/>
    </edge>
    <edge id="gneE12" from="gneJ6" to="gneJ8" priority="-1">
        <lane id="gneE12_0" index="0" speed="13.89" length="68.47" shape="103.17,72.75 149.66,22.48"/>
    </edge>
    <edge id="gneE14" from="gneJ16" to="gneJ12" priority="-1">
        <lane id="gneE14_0" index="0" speed="13.89" length="133.39" shape="35.54,-14.20 149.92,-82.83"/>
    </edge>
    <edge id="gneE15" from="gneJ4" to="gneJ16" priority="-1">
        <lane id="gneE15_0" index="0" speed="13.89" length="122.83" shape="-33.86,104.72 24.99,-3.10"/>
    </edge>
    <edge id="gneE16" from="gneJ16" to="gneJ17" priority="-1">
        <lane id="gneE16_0" index="0" speed="13.89" length="114.65" shape="22.65,-19.43 -31.67,-120.40"/>
    </edge>
    <edge id="gneE17" from="gneJ17" to="gneJ12" priority="-1">
        <lane id="gneE17_0" index="0" speed="13.89" length="178.20" shape="-24.40,-130.03 149.65,-91.81"/>
    </edge>
    <edge id="gneE18" from="gneJ3" to="gneJ19" priority="-1">
        <lane id="gneE18_0" index="0" speed="13.89" length="179.20" shape="-110.77,104.50 -152.57,-69.76"/>
    </edge>
    <edge id="gneE19" from="gneJ19" to="gneJ17" priority="-1">
        <lane id="gneE19_0" index="0" speed="13.89" length="109.66" shape="-143.14,-86.10 -42.45,-129.54"/>
    </edge>
    <edge id="gneE2" from="gneJ4" to="gneJ5" priority="-1">
        <lane id="gneE2_0" index="0" speed="13.89" length="58.15" shape="-27.67,112.38 30.36,116.00"/>
    </edge>
    <edge id="gneE20" from="gneJ17" to="gneJ20" priority="-1">
        <lane id="gneE20_0" index="0" speed="13.89" length="106.05" shape="-33.74,-138.70 8.88,-235.81"/>
    </edge>
    <edge id="gneE21" from="gneJ20" to="gneJ13" priority="-1">
        <lane id="gneE21_0" index="0" speed="13.89" length="150.51" shape="14.96,-238.38 155.83,-185.37"/>
    </edge>
    <edge id="gneE22" from="gneJ19" to="gneJ16" priority="-1">
        <lane id="gneE22_0" index="0" speed="13.89" length="172.17" shape="-141.76,-77.18 18.83,-15.10"/>
    </edge>
    <edge id="gneE24" from="gneJ22" to="gneJ3" priority="-1">
        <lane id="gneE24_0" index="0" speed="13.89" length="132.64" shape="-247.81,116.89 -115.31,110.55"/>
    </edge>
    <edge id="gneE3" from="gneJ5" to="gneJ6" priority="-1">
        <lane id="gneE3_0" index="0" speed="13.89" length="71.00" shape="31.25,115.80 93.13,80.99"/>
    </edge>
    <edge id="gneE4" from="gneJ6" to="gneJ7" priority="-1">
        <lane id="gneE4_0" index="0" speed="13.89" length="62.03" shape="106.27,82.60 156.40,119.13"/>
    </edge>
    <edge id="gneE5" from="gneJ7" to="gneJ8" priority="-1">
        <lane id="gneE5_0" index="0" speed="13.89" length="91.04" shape="158.94,117.81 157.56,26.78"/>
    </edge>
    <edge id="gneE9" from="gneJ8" to="gneJ12" priority="-1">
        <lane id="gneE9_0" index="0" speed="13.89" length="87.44" shape="157.49,9.51 159.28,-77.90"/>
    </edge>

    <tlLogic id="gneJ12" type="static" programID="0" offset="0">
        <phase duration="18" state="GrrrrrrrrGGG"/>
        <phase duration="6"  state="yrrrrrrrryyy"/>
        <phase duration="20" state="rrrGGGGrrrrr"/>
        <phase duration="3"  state="rrryyyyrrrrr"/>
        <phase duration="20" state="GGGGrrrrrrrr"/>
        <phase duration="3"  state="yyyyrrrrrrrr"/>
        <phase duration="20" state="rrrrrrGGGGrr"/>
        <phase duration="3"  state="rrrrrryyyyrr"/>
    </tlLogic>
    <tlLogic id="gneJ13" type="static" programID="0" offset="0">
        <phase duration="42" state="rrGGGg"/>
        <phase duration="6"  state="rryyyy"/>
        <phase duration="42" state="GGGrrr"/>
        <phase duration="3"  state="yyyrrr"/>
    </tlLogic>
    <tlLogic id="gneJ16" type="static" programID="0" offset="0">
        <phase duration="18" state="GrrrrrrrrGGG"/>
        <phase duration="6"  state="yrrrrrrrryyy"/>
        <phase duration="20" state="rrrrrrGGGGrr"/>
        <phase duration="3"  state="rrrrrryyyyrr"/>
        <phase duration="20" state="GGGGrrrrrrrr"/>
        <phase duration="3"  state="yyyyrrrrrrrr"/>
        <phase duration="20" state="rrrGGGGrrrrr"/>
        <phase duration="3"  state="rrryyyyrrrrr"/>
    </tlLogic>
    <tlLogic id="gneJ17" type="static" programID="0" offset="0">
        <phase duration="3"  state="rrryyyrrryyy"/>
        <phase duration="42" state="gggrrrGGGrrr"/>
        <phase duration="3"  state="yyyrrryyyrrr"/>
    </tlLogic>
    <tlLogic id="gneJ19" type="static" programID="0" offset="0">
        <phase duration="38" state="GgrrGG"/>
        <phase duration="3"  state="yyrryy"/>
        <phase duration="3"  state="ygrryy"/>
        <phase duration="6"  state="GGrrrr"/>
        <phase duration="3"  state="yyrrrr"/>
        <phase duration="37" state="rrGGGr"/>
        <phase duration="3"  state="rryyyr"/>
    </tlLogic>
    <tlLogic id="gneJ3" type="static" programID="0" offset="0">
        <phase duration="42" state="GgrrGG"/>
        <phase duration="6"  state="yyrryy"/>
        <phase duration="42" state="rrGGGr"/>
        <phase duration="3"  state="rryyyr"/>
    </tlLogic>
    <tlLogic id="gneJ4" type="static" programID="0" offset="0">
        <phase duration="42" state="GgrrGG"/>
        <phase duration="6"  state="yyrryy"/>
        <phase duration="42" state="rrGGGr"/>
        <phase duration="3"  state="rryyyr"/>
    </tlLogic>
    <tlLogic id="gneJ6" type="static" programID="0" offset="0">
        <phase duration="42" state="rrGGGg"/>
        <phase duration="6"  state="rryyyy"/>
        <phase duration="42" state="GGGrrr"/>
        <phase duration="3"  state="yyyrrr"/>
    </tlLogic>
    <tlLogic id="gneJ8" type="static" programID="0" offset="0">
        <phase duration="27" state="GGGrrr"/>
        <phase duration="6"  state="yyyrrr"/>
        <phase duration="27" state="rrGGGr"/>
        <phase duration="3"  state="rryyyr"/>
        <phase duration="27" state="GrrrGG"/>
        <phase duration="3"  state="yrrryy"/>
    </tlLogic>

    <junction id="gneJ12" type="traffic_light" x="161.08" y="-87.66" incLanes="-gneE10_0 gneE17_0 gneE14_0 gneE9_0" intLanes=":gneJ12_0_0 :gneJ12_1_0 :gneJ12_2_0 :gneJ12_3_0 :gneJ12_4_0 :gneJ12_5_0 :gneJ12_6_0 :gneJ12_7_0 :gneJ12_8_0 :gneJ12_9_0 :gneJ12_10_0 :gneJ12_11_0" shape="164.28,-95.64 157.88,-95.64 157.00,-93.61 155.91,-93.07 154.37,-92.85 152.40,-92.95 149.99,-93.37 148.62,-87.12 150.41,-86.41 150.69,-85.96 150.57,-85.44 150.04,-84.85 149.10,-84.20 152.39,-78.71 155.37,-80.06 156.40,-80.13 157.13,-79.80 157.55,-79.07 157.68,-77.94 164.08,-77.80">
        <request index="0"  response="000000000000" foes="000100010000" cont="0"/>
        <request index="1"  response="111000000000" foes="111100110000" cont="0"/>
        <request index="2"  response="110000000000" foes="110011110000" cont="0"/>
        <request index="3"  response="100000000000" foes="100010000000" cont="0"/>
        <request index="4"  response="100000000111" foes="100110000111" cont="0"/>
        <request index="5"  response="011000000110" foes="011110000110" cont="0"/>
        <request index="6"  response="010000000100" foes="010000000100" cont="0"/>
        <request index="7"  response="110000111100" foes="110000111100" cont="0"/>
        <request index="8"  response="110000110011" foes="110000110011" cont="0"/>
        <request index="9"  response="000000000000" foes="000000100010" cont="0"/>
        <request index="10" response="000000000000" foes="000111100110" cont="0"/>
        <request index="11" response="000000000000" foes="000110011110" cont="0"/>
    </junction>
    <junction id="gneJ13" type="traffic_light" x="161.08" y="-181.68" incLanes="gneE10_0 -gneE11_0 gneE21_0" intLanes=":gneJ13_0_0 :gneJ13_1_0 :gneJ13_2_0 :gneJ13_3_0 :gneJ13_4_0 :gneJ13_6_0" shape="157.88,-174.17 164.28,-174.17 164.72,-176.35 165.27,-177.08 166.05,-177.56 167.04,-177.80 168.26,-177.80 168.86,-184.17 166.14,-184.42 164.13,-184.63 162.48,-184.90 160.86,-185.30 158.94,-185.93 156.39,-186.87 154.14,-180.88 156.22,-179.51 156.94,-178.50 157.46,-177.27 157.77,-175.83">
        <request index="0" response="001000" foes="001000" cont="0"/>
        <request index="1" response="111000" foes="111000" cont="0"/>