<?xml version="1.0" encoding="UTF-8"?>

<!-- generated on Wed Jan 20 21:22:31 2021 by Eclipse SUMO netedit Version 1.2.0
<configuration xmlns:xsi="http://www.w3.org/2001/XMLSchema-instance" xsi:noNamespaceSchemaLocation="http://sumo.dlr.de/xsd/netconvertConfiguration.xsd">

    <output>
        <output-file value="/Users/chouyachou/Documents/Scheduling/Traffic/maps/simple_grid2.net.xml"/>
    </output>

    <processing>
        <offset.disable-normalization value="true"/>
    </processing>

    <junctions>
        <no-turnarounds value="true"/>
    </junctions>

</configuration>
-->

<net version="1.1" junctionCornerDetail="5" limitTurnSpeed="5.50" xmlns:xsi="http://www.w3.org/2001/XMLSchema-instance" xsi:noNamespaceSchemaLocation="http://sumo.dlr.de/xsd/net_file.xsd">

    <location netOffset="0.00,0.00" convBoundary="-35.83,-71.21,227.61,71.02" origBoundary="10000000000.00,10000000000.00,-10000000000.00,-10000000000.00" projParameter="!"/>

    <edge id=":gneJ0_0" function="internal">
        <lane id=":gneJ0_0_0" index="0" speed="13.89" length="13.36" shape="25.93,62.64 22.44,62.53 19.25,62.59 16.08,62.87 12.64,63.42"/>
    </edge>
    <edge id=":gneJ0_1" function="internal">
        <lane id=":gneJ0_1_0" index="0" speed="7.84" length="5.58" shape="25.93,62.64 21.97,61.87 20.71,60.98"/>
    </edge>
    <edge id=":gneJ0_6" function="internal">
        <lane id=":gneJ0_6_0" index="0" speed="7.84" length="8.97" shape="20.71,60.98 19.32,60.01 18.00,57.05 17.99,53.01"/>
    </edge>
    <edge id=":gneJ0_2" function="internal">
        <lane id=":gneJ0_2_0" index="0" speed="6.32" length="9.04" shape="21.16,53.46 21.16,55.98 21.99,57.81 23.63,58.97 26.09,59.45"/>
    </edge>
    <edge id=":gneJ0_3" function="internal">
        <lane id=":gneJ0_3_0" index="0" speed="9.14" length="14.08" shape="21.16,53.46 20.17,57.30 18.42,60.24 15.91,62.28 12.64,63.42"/>
    </edge>
    <edge id=":gneJ0_4" function="internal">
        <lane id=":gneJ0_4_0" index="0" speed="7.81" length="10.08" shape="12.04,60.28 14.30,59.46 16.05,57.98 17.28,55.83 17.99,53.01"/>
    </edge>
    <edge id=":gneJ0_5" function="internal">
        <lane id=":gneJ0_5_0" index="0" speed="13.89" length="14.11" shape="12.04,60.28 15.60,59.72 19.03,59.42 22.48,59.34 26.09,59.45"/>
    </edge>
    <edge id=":gneJ1_0" function="internal">
        <lane id=":gneJ1_0_0" index="0" speed="13.89" length="14.38" shape="108.12,66.77 93.76,65.99"/>
    </edge>
    <edge id=":gneJ1_1" function="internal">
        <lane id=":gneJ1_1_0" index="0" speed="7.88" length="5.90" shape="108.12,66.77 104.20,65.97 102.65,64.87"/>
    </edge>
    <edge id=":gneJ1_6" function="internal">
        <lane id=":gneJ1_6_0" index="0" speed="7.88" length="8.55" shape="102.65,64.87 101.56,64.10 100.21,61.17 100.14,57.17"/>
    </edge>
    <edge id=":gneJ1_2" function="internal">
        <lane id=":gneJ1_2_0" index="0" speed="6.36" length="9.04" shape="103.32,57.57 103.36,60.07 104.21,61.91 105.85,63.07 108.30,63.57"/>
    </edge>
    <edge id=":gneJ1_3" function="internal">
        <lane id=":gneJ1_3_0" index="0" speed="8.26" length="14.29" shape="103.32,57.57 102.30,61.41 100.37,64.10 97.52,65.62 93.76,65.99"/>
    </edge>
    <edge id=":gneJ1_4" function="internal">
        <lane id=":gneJ1_4_0" index="0" speed="6.81" length="9.41" shape="93.92,62.80 96.36,62.55 98.21,61.53 99.47,59.73 100.14,57.17"/>
    </edge>
    <edge id=":gneJ1_5" function="internal">
        <lane id=":gneJ1_5_0" index="0" speed="13.89" length="14.40" shape="93.92,62.80 108.30,63.57"/>
    </edge>
    <edge id=":gneJ10_0" function="internal">
        <lane id=":gneJ10_0_0" index="0" speed="6.44" length="9.09" shape="116.93,-65.09 114.44,-65.08 112.58,-64.27 111.34,-62.64 110.73,-60.19"/>
    </edge>
    <edge id=":gneJ10_1" function="internal">
        <lane id=":gneJ10_1_0" index="0" speed="13.89" length="14.55" shape="116.93,-65.09 113.28,-65.57 109.71,-65.95 106.12,-66.24 102.45,-66.46"/>
    </edge>
    <edge id=":gneJ10_2" function="internal">
        <lane id=":gneJ10_2_0" index="0" speed="13.89" length="14.85" shape="102.60,-69.65 106.32,-69.44 110.01,-69.13 113.69,-68.74 117.38,-68.26"/>
    </edge>
    <edge id=":gneJ10_3" function="internal">
        <lane id=":gneJ10_3_0" index="0" speed="7.90" length="6.16" shape="102.60,-69.65 106.51,-68.90 108.30,-67.67"/>
    </edge>
    <edge id=":gneJ10_6" function="internal">
        <lane id=":gneJ10_6_0" index="0" speed="7.90" length="8.26" shape="108.30,-67.67 109.17,-67.08 110.57,-64.17 110.73,-60.19"/>
    </edge>
    <edge id=":gneJ10_4" function="internal">
        <lane id=":gneJ10_4_0" index="0" speed="6.39" length="9.04" shape="107.55,-60.53 107.45,-63.02 106.57,-64.84 104.90,-65.99 102.45,-66.46"/>
    </edge>
    <edge id=":gneJ10_5" function="internal">
        <lane id=":gneJ10_5_0" index="0" speed="7.95" length="14.39" shape="107.55,-60.53 108.51,-64.39 110.48,-66.96 113.43,-68.25 117.38,-68.26"/>
    </edge>
    <edge id=":gneJ11_0" function="internal">
        <lane id=":gneJ11_0_0" index="0" speed="3.91" length="2.52" shape="38.65,-69.47 37.97,-69.40 37.46,-69.14 37.14,-68.67 36.98,-68.00"/>
    </edge>
    <edge id=":gneJ11_1" function="internal">
        <lane id=":gneJ11_1_0" index="0" speed="6.08" length="7.56" shape="33.79,-68.25 34.25,-70.26 35.23,-71.67 36.75,-72.47 38.81,-72.66"/>
    </edge>
    <edge id=":gneJ2_0" function="internal">
        <lane id=":gneJ2_0_0" index="0" speed="6.08" length="7.74" shape="175.22,65.85 174.80,67.93 173.82,69.37 172.27,70.18 170.15,70.36"/>
    </edge>
    <edge id=":gneJ2_1" function="internal">
        <lane id=":gneJ2_1_0" index="0" speed="3.90" length="2.58" shape="170.34,67.17 171.04,67.11 171.56,66.84 171.89,66.36 172.03,65.66"/>
    </edge>
    <edge id=":gneJ3_0" function="internal">
        <lane id=":gneJ3_0_0" index="0" speed="13.89" length="14.95" shape="177.25,15.48 177.41,19.22 177.47,22.95 177.42,26.68 177.26,30.42"/>
    </edge>
    <edge id=":gneJ3_1" function="internal">
        <lane id=":gneJ3_1_0" index="0" speed="7.81" length="6.21" shape="177.25,15.48 176.89,19.55 175.85,21.40"/>
    </edge>
    <edge id=":gneJ3_6" function="internal">
        <lane id=":gneJ3_6_0" index="0" speed="7.81" length="8.44" shape="175.85,21.40 175.30,22.37 172.47,23.95 168.40,24.29"/>
    </edge>
    <edge id=":gneJ3_2" function="internal">
        <lane id=":gneJ3_2_0" index="0" speed="6.27" length="9.04" shape="168.59,21.10 171.10,20.89 172.85,19.91 173.83,18.17 174.05,15.66"/>
    </edge>
    <edge id=":gneJ3_3" function="internal">
        <lane id=":gneJ3_3_0" index="0" speed="8.09" length="14.51" shape="168.59,21.10 172.57,21.89 175.34,23.71 176.91,26.55 177.26,30.42"/>
    </edge>
    <edge id=":gneJ3_4" function="internal">
        <lane id=":gneJ3_4_0" index="0" speed="6.62" length="9.36" shape="174.06,30.24 173.83,27.77 172.81,25.96 171.00,24.80 168.40,24.29"/>
    </edge>
    <edge id=":gneJ3_5" function="internal">
        <lane id=":gneJ3_5_0" index="0" speed="13.89" length="14.59" shape="174.06,30.24 174.22,26.56 174.27,22.95 174.21,19.34 174.05,15.66"/>
    </edge>
    <edge id=":gneJ4_0" function="internal">
        <lane id=":gneJ4_0_0" index="0" speed="6.79" length="9.42" shape="113.48,20.96 111.03,21.19 109.17,22.19 107.91,23.98 107.24,26.55"/>
    </edge>
    <edge id=":gneJ4_1" function="internal">
        <lane id=":gneJ4_1_0" index="0" speed="13.89" length="14.46" shape="113.48,20.96 99.04,20.20"/>
    </edge>
    <edge id=":gneJ4_2" function="internal">
        <lane id=":gneJ4_2_0" index="0" speed="8.36" length="5.75" shape="113.48,20.96 109.77,20.18 108.14,19.08"/>
    </edge>
    <edge id=":gneJ4_12" function="internal">
        <lane id=":gneJ4_12_0" index="0" speed="8.36" length="8.64" shape="108.14,19.08 107.07,18.35 105.37,15.46 104.69,11.53"/>
    </edge>
    <edge id=":gneJ4_3" function="internal">
        <lane id=":gneJ4_3_0" index="0" speed="6.94" length="9.60" shape="107.89,11.40 108.34,14.06 109.45,16.01 111.23,17.24 113.67,17.77"/>
    </edge>
    <edge id=":gneJ4_4" function="internal">
        <lane id=":gneJ4_4_0" index="0" speed="13.89" length="15.18" shape="107.89,11.40 107.96,15.18 107.87,18.99 107.63,22.79 107.24,26.55"/>
    </edge>
    <edge id=":gneJ4_5" function="internal">
        <lane id=":gneJ4_5_0" index="0" speed="7.86" length="6.34" shape="107.89,11.40 107.47,15.41 106.32,17.41"/>
    </edge>
    <edge id=":gneJ4_13" function="internal">
        <lane id=":gneJ4_13_0" index="0" speed="7.86" length="8.18" shape="106.32,17.41 105.86,18.21 103.05,19.81 99.04,20.20"/>
    </edge>
    <edge id=":gneJ4_6" function="internal">
        <lane id=":gneJ4_6_0" index="0" speed="6.33" length="9.04" shape="99.18,17.01 101.68,16.76 103.43,15.77 104.43,14.02 104.69,11.53"/>
    </edge>
    <edge id=":gneJ4_7" function="internal">
        <lane id=":gneJ4_7_0" index="0" speed="13.89" length="14.51" shape="99.18,17.01 113.67,17.77"/>
    </edge>
    <edge id=":gneJ4_8" function="internal">
        <lane id=":gneJ4_8_0" index="0" speed="7.87" length="6.04" shape="99.18,17.01 103.14,17.76 104.79,18.90"/>
    </edge>
    <edge id=":gneJ4_14" function="internal">
        <lane id=":gneJ4_14_0" index="0" speed="7.87" length="8.48" shape="104.79,18.90 105.80,19.60 107.17,22.53 107.24,26.55"/>
    </edge>
    <edge id=":gneJ4_9" function="internal">
        <lane id=":gneJ4_9_0" index="0" speed="6.34" length="9.05" shape="104.06,26.15 104.02,23.65 103.17,21.82 101.51,20.67 99.04,20.20"/>
    </edge>
    <edge id=":gneJ4_10" function="internal">
        <lane id=":gneJ4_10_0" index="0" speed="13.89" length="14.65" shape="104.06,26.15 104.45,22.48 104.69,18.85 104.77,15.22 104.69,11.53"/>
    </edge>
    <edge id=":gneJ4_11" function="internal">
        <lane id=":gneJ4_11_0" index="0" speed="8.23" length="5.82" shape="104.06,26.15 105.09,22.29 106.16,20.81"/>
    </edge>
    <edge id=":gneJ4_15" function="internal">
        <lane id=":gneJ4_15_0" index="0" speed="8.23" length="8.52" shape="106.16,20.81 107.03,19.61 109.89,18.10 113.67,17.77"/>
    </edge>
    <edge id=":gneJ5_0" function="internal">
        <lane id=":gneJ5_0_0" index="0" speed="6.92" length="9.57" shape="32.47,17.20 29.76,17.41 27.71,18.34 26.32,19.97 25.60,22.32"/>
    </edge>
    <edge id=":gneJ5_1" function="internal">
        <lane id=":gneJ5_1_0" index="0" speed="7.82" length="14.61" shape="32.47,17.20 28.48,16.44 25.83,14.57 24.52,11.61 24.55,7.54"/>
    </edge>
    <edge id=":gneJ5_2" function="internal">
        <lane id=":gneJ5_2_0" index="0" speed="6.29" length="9.04" shape="27.72,8.03 27.70,10.54 28.51,12.38 30.15,13.53 32.62,14.00"/>
    </edge>
    <edge id=":gneJ5_3" function="internal">
        <lane id=":gneJ5_3_0" index="0" speed="13.89" length="14.45" shape="27.72,8.03 25.60,22.32"/>
    </edge>
    <edge id=":gneJ5_4" function="internal">
        <lane id=":gneJ5_4_0" index="0" speed="13.89" length="14.48" shape="22.44,21.87 24.55,7.54"/>
    </edge>
    <edge id=":gneJ5_5" function="internal">
        <lane id=":gneJ5_5_0" index="0" speed="8.34" length="5.81" shape="22.44,21.87 23.52,18.27 24.82,16.68"/>
    </edge>
    <edge id=":gneJ5_6" function="internal">
        <lane id=":gneJ5_6_0" index="0" speed="8.34" length="8.57" shape="24.82,16.68 25.57,15.76 28.61,14.34 32.62,14.00"/>
    </edge>
    <edge id=":gneJ6_0" function="internal">
        <lane id=":gneJ6_0_0" index="0" speed="6.38" length="9.04" shape="39.73,-33.07 37.24,-33.24 35.34,-32.55 34.03,-31.02 33.30,-28.63"/>
    </edge>
    <edge id=":gneJ6_1" function="internal">
        <lane id=":gneJ6_1_0" index="0" speed="8.41" length="14.20" shape="39.73,-33.07 36.01,-34.39 33.44,-36.49 32.03,-39.40 31.78,-43.09"/>
    </edge>
    <edge id=":gneJ6_2" function="internal">
        <lane id=":gneJ6_2_0" index="0" speed="6.99" length="9.52" shape="34.97,-42.84 35.15,-40.40 36.11,-38.48 37.86,-37.08 40.40,-36.20"/>
    </edge>
    <edge id=":gneJ6_3" function="internal">
        <lane id=":gneJ6_3_0" index="0" speed="13.89" length="14.31" shape="34.97,-42.84 33.30,-28.63"/>
    </edge>
    <edge id=":gneJ6_4" function="internal">
        <lane id=":gneJ6_4_0" index="0" speed="13.89" length="14.08" shape="30.14,-29.11 31.78,-43.09"/>
    </edge>
    <edge id=":gneJ6_5" function="internal">
        <lane id=":gneJ6_5_0" index="0" speed="7.90" length="5.60" shape="30.14,-29.11 31.29,-32.92 32.34,-34.15"/>
    </edge>
    <edge id=":gneJ6_6" function="internal">
        <lane id=":gneJ6_6_0" index="0" speed="7.90" length="8.83" shape="32.34,-34.15 33.39,-35.38 36.42,-36.47 40.40,-36.20"/>
    </edge>
    <edge id=":gneJ7_0" function="internal">
        <lane id=":gneJ7_0_0" index="0" speed="7.74" length="10.69" shape="103.70,-13.34 103.20,-16.10 101.97,-18.26 99.99,-19.82 97.27,-20.78"/>
    </edge>
    <edge id=":gneJ7_1" function="internal">
        <lane id=":gneJ7_1_0" index="0" speed="13.89" length="15.13" shape="103.70,-13.34 103.62,-17.11 103.68,-20.90 103.87,-24.69 104.19,-28.45"/>
    </edge>
    <edge id=":gneJ7_2" function="internal">
        <lane id=":gneJ7_2_0" index="0" speed="7.94" length="6.24" shape="103.70,-13.34 104.11,-17.29 105.24,-19.26"/>
    </edge>
    <edge id=":gneJ7_12" function="internal">
        <lane id=":gneJ7_12_0" index="0" speed="7.94" length="8.27" shape="105.24,-19.26 105.72,-20.10 108.53,-21.76 112.53,-22.29"/>
    </edge>
    <edge id=":gneJ7_3" function="internal">
        <lane id=":gneJ7_3_0" index="0" speed="6.44" length="9.16" shape="112.50,-19.09 109.96,-18.76 108.18,-17.71 107.16,-15.95 106.89,-13.47"/>
    </edge>
    <edge id=":gneJ7_4" function="internal">
        <lane id=":gneJ7_4_0" index="0" speed="13.89" length="15.34" shape="112.50,-19.09 108.70,-19.23 104.85,-19.56 101.01,-20.08 97.27,-20.78"/>
    </edge>
    <edge id=":gneJ7_5" function="internal">
        <lane id=":gneJ7_5_0" index="0" speed="7.85" length="6.43" shape="112.50,-19.09 108.50,-19.71 106.51,-21.01"/>
    </edge>
    <edge id=":gneJ7_13" function="internal">
        <lane id=":gneJ7_13_0" index="0" speed="7.85" length="8.17" shape="106.51,-21.01 105.79,-21.48 104.35,-24.39 104.19,-28.45"/>
    </edge>
    <edge id=":gneJ7_6" function="internal">
        <lane id=":gneJ7_6_0" index="0" speed="6.32" length="9.08" shape="107.38,-28.12 107.47,-25.59 108.36,-23.78 110.05,-22.67 112.53,-22.29"/>
    </edge>
    <edge id=":gneJ7_7" function="internal">
        <lane id=":gneJ7_7_0" index="0" speed="13.89" length="14.67" shape="107.38,-28.12 107.05,-24.43 106.87,-20.80 106.81,-17.17 106.89,-13.47"/>
    </edge>
    <edge id=":gneJ7_8" function="internal">
        <lane id=":gneJ7_8_0" index="0" speed="7.82" length="5.68" shape="107.38,-28.12 106.38,-24.18 105.38,-22.92"/>
    </edge>
    <edge id=":gneJ7_14" function="internal">
        <lane id=":gneJ7_14_0" index="0" speed="7.82" length="8.94" shape="105.38,-22.92 104.37,-21.64 101.33,-20.51 97.27,-20.78"/>
    </edge>
    <edge id=":gneJ7_9" function="internal">
        <lane id=":gneJ7_9_0" index="0" speed="6.29" length="9.04" shape="97.94,-23.91 100.45,-23.74 102.33,-24.44 103.58,-26.01 104.19,-28.45"/>
    </edge>
    <edge id=":gneJ7_10" function="internal">
        <lane id=":gneJ7_10_0" index="0" speed="13.89" length="14.70" shape="97.94,-23.91 101.58,-23.22 105.20,-22.73 108.83,-22.42 112.53,-22.29"/>
    </edge>
    <edge id=":gneJ7_11" function="internal">
        <lane id=":gneJ7_11_0" index="0" speed="9.06" length="5.90" shape="97.94,-23.91 101.73,-22.57 103.20,-21.40"/>
    </edge>
    <edge id=":gneJ7_15" function="internal">
        <lane id=":gneJ7_15_0" index="0" speed="9.06" length="9.06" shape="103.20,-21.40 104.48,-20.38 106.21,-17.35 106.89,-13.47"/>
    </edge>
    <edge id=":gneJ8_0" function="internal">
        <lane id=":gneJ8_0_0" index="0" speed="6.52" length="8.61" shape="172.44,-13.25 171.99,-15.54 170.91,-17.18 169.22,-18.18 166.91,-18.53"/>
    </edge>
    <edge id=":gneJ8_1" function="internal">
        <lane id=":gneJ8_1_0" index="0" speed="13.89" length="13.38" shape="172.44,-13.25 172.34,-16.74 172.49,-19.93 172.93,-23.09 173.71,-26.50"/>
    </edge>
    <edge id=":gneJ8_2" function="internal">
        <lane id=":gneJ8_2_0" index="0" speed="13.89" length="12.38" shape="176.80,-25.68 176.04,-22.43 175.64,-19.61 175.52,-16.77 175.64,-13.42"/>
    </edge>
    <edge id=":gneJ8_3" function="internal">
        <lane id=":gneJ8_3_0" index="0" speed="8.56" length="5.15" shape="176.80,-25.68 175.47,-22.53 174.29,-21.27"/>
    </edge>
    <edge id=":gneJ8_6" function="internal">
        <lane id=":gneJ8_6_0" index="0" speed="8.56" length="8.13" shape="174.29,-21.27 173.37,-20.28 170.52,-18.95 166.91,-18.53"/>
    </edge>
    <edge id=":gneJ8_4" function="internal">
        <lane id=":gneJ8_4_0" index="0" speed="7.15" length="9.01" shape="166.94,-21.73 169.42,-22.01 171.38,-22.90 172.81,-24.39 173.71,-26.50"/>
    </edge>
    <edge id=":gneJ8_5" function="internal">
        <lane id=":gneJ8_5_0" index="0" speed="8.02" length="13.53" shape="166.94,-21.73 170.57,-21.18 173.23,-19.61 174.92,-17.03 175.64,-13.42"/>
    </edge>
    <edge id=":gneJ9_0" function="internal">
        <lane id=":gneJ9_0_0" index="0" speed="7.47" length="9.96" shape="189.95,-55.50 187.55,-55.15 185.61,-54.03 184.12,-52.12 183.08,-49.45"/>
    </edge>
    <edge id=":gneJ9_1" function="internal">
        <lane id=":gneJ9_1_0" index="0" speed="13.89" length="14.28" shape="189.95,-55.50 186.32,-55.62 182.82,-55.86 179.33,-56.22 175.73,-56.69"/>
    </edge>
    <edge id=":gneJ9_2" function="internal">
        <lane id=":gneJ9_2_0" index="0" speed="13.89" length="13.88" shape="176.18,-59.86 179.72,-59.39 183.07,-59.04 186.43,-58.81 190.00,-58.70"/>
    </edge>
    <edge id=":gneJ9_3" function="internal">
        <lane id=":gneJ9_3_0" index="0" speed="7.81" length="5.76" shape="176.18,-59.86 180.10,-58.71 181.37,-57.62"/>
    </edge>
    <edge id=":gneJ9_6" function="internal">
        <lane id=":gneJ9_6_0" index="0" speed="7.81" length="8.90" shape="181.37,-57.62 182.55,-56.59 183.55,-53.50 183.08,-49.45"/>
    </edge>
    <edge id=":gneJ9_4" function="internal">
        <lane id=":gneJ9_4_0" index="0" speed="6.27" length="9.04" shape="179.99,-50.26 180.28,-52.77 179.66,-54.67 178.15,-55.98 175.73,-56.69"/>
    </edge>
    <edge id=":gneJ9_5" function="internal">
        <lane id=":gneJ9_5_0" index="0" speed="8.83" length="14.25" shape="179.99,-50.26 181.46,-54.00 183.62,-56.65 186.47,-58.21 190.00,-58.70"/>
    </edge>

    <edge id="-gneE0" from="gneJ1" to="gneJ0" priority="-1">
        <lane id="-gneE0_0" index="0" speed="13.89" length="67.91" shape="93.76,65.99 25.93,62.64"/>
    </edge>
    <edge id="-gneE1" from="gneJ2" to="gneJ1" priority="-1">
        <lane id="-gneE1_0" index="0" speed="13.89" length="62.14" shape="170.15,70.36 108.12,66.77"/>
    </edge>
    <edge id="-gneE10" from="gneJ11" to="gneJ10" priority="-1">
        <lane id="-gneE10_0" index="0" speed="13.89" length="63.87" shape="38.81,-72.66 102.60,-69.65"/>
    </edge>
    <edge id="-gneE11" from="gneJ6" to="gneJ11" priority="-1">
        <lane id="-gneE11_0" index="0" speed="13.89" length="25.24" shape="31.78,-43.09 33.79,-68.25"/>
    </edge>
    <edge id="-gneE12" from="gneJ0" to="gneJ5" priority="-1">
        <lane id="-gneE12_0" index="0" speed="13.89" length="31.46" shape="17.99,53.01 22.44,21.87"/>
    </edge>
    <edge id="-gneE13" from="gneJ12" to="gneJ0" priority="-1">
        <lane id="-gneE13_0" index="0" speed="13.89" length="49.03" shape="-36.13,69.45 12.04,60.28"/>
    </edge>
    <edge id="-gneE14" from="gneJ4" to="gneJ1" priority="-1">
        <lane id="-gneE14_0" index="0" speed="13.89" length="31.27" shape="107.24,26.55 103.32,57.57"/>
    </edge>
    <edge id="-gneE15" from="gneJ7" to="gneJ4" priority="-1">
        <lane id="-gneE15_0" index="0" speed="13.89" length="24.89" shape="106.89,-13.47 107.89,11.40"/>
    </edge>
    <edge id="-gneE16" from="gneJ10" to="gneJ7" priority="-1">
        <lane id="-gneE16_0" index="0" speed="13.89" length="32.25" shape="110.73,-60.19 107.38,-28.12"/>
    </edge>
    <edge id="-gneE17" from="gneJ13" to="gneJ9" priority="-1">
        <lane id="-gneE17_0" index="0" speed="13.89" length="37.64" shape="227.59,-54.90 189.95,-55.50"/>
    </edge>
    <edge id="-gneE18" from="gneJ3" to="gneJ8" priority="-1">
        <lane id="-gneE18_0" index="0" speed="13.89" length="28.95" shape="174.05,15.66 172.44,-13.25"/>
    </edge>
    <edge id="-gneE2" from="gneJ3" to="gneJ2" priority="-1">
        <lane id="-gneE2_0" index="0" speed="13.89" length="35.48" shape="177.26,30.42 175.22,65.85"/>
    </edge>
    <edge id="-gneE3" from="gneJ4" to="gneJ3" priority="-1">
        <lane id="-gneE3_0" index="0" speed="13.89" length="55.02" shape="113.67,17.77 168.59,21.10"/>
    </edge>
    <edge id="-gneE4" from="gneJ5" to="gneJ4" priority="-1">
        <lane id="-gneE4_0" index="0" speed="13.89" length="66.63" shape="32.62,14.00 99.18,17.01"/>
    </edge>
    <edge id="-gneE5" from="gneJ6" to="gneJ5" priority="-1">
        <lane id="-gneE5_0" index="0" speed="13.89" length="37.08" shape="33.30,-28.63 27.72,8.03"/>
    </edge>
    <edge id="-gneE6" from="gneJ7" to="gneJ6" priority="-1">
        <lane id="-gneE6_0" index="0" speed="13.89" length="58.84" shape="97.27,-20.78 39.73,-33.07"/>
    </edge>
    <edge id="-gneE7" from="gneJ8" to="gneJ7" priority="-1">
        <lane id="-gneE7_0" index="0" speed="13.89" length="54.41" shape="166.91,-18.53 112.50,-19.09"/>
    </edge>
    <edge id="-gneE8" from="gneJ9" to="gneJ8" priority="-1">
        <lane id="-gneE8_0" index="0" speed="13.89" length="24.58" shape="183.08,-49.45 176.80,-25.68"/>
    </edge>
    <edge id="-gneE9" from="gneJ10" to="gneJ9" priority="-1">
        <lane id="-gneE9_0" index="0" speed="13.89" length="59.40" shape="117.38,-68.26 176.18,-59.86"/>
    </edge>
    <edge id="gneE0" from="gneJ0" to="gneJ1" priority="-1">
        <lane id="gneE0_0" index="0" speed="13.89" length="67.91" shape="26.09,59.45 93.92,62.80"/>
    </edge>
    <edge id="gneE1" from="gneJ1" to="gneJ2" priority="-1">
        <lane id="gneE1_0" index="0" speed="13.89" length="62.14" shape="108.30,63.57 170.34,67.17"/>
    </edge>
    <edge id="gneE10" from="gneJ10" to="gneJ11" priority="-1">
        <lane id="gneE10_0" index="0" speed="13.89" length="63.87" shape="102.45,-66.46 38.65,-69.47"/>
    </edge>
    <edge id="gneE11" from="gneJ11" to="gneJ6" priority="-1">
        <lane id="gneE11_0" index="0" speed="13.89" length="25.24" shape="36.98,-68.00 34.97,-42.84"/>
    </edge>
    <edge id="gneE12" from="gneJ5" to="gneJ0" priority="-1">
        <lane id="gneE12_0" index="0" speed="13.89" length="31.46" shape="25.60,22.32 21.16,53.46"/>
    </edge>
    <edge id="gneE13" from="gneJ0" to="gneJ12" priority="-1">
        <lane id="gneE13_0" index="0" speed="13.89" length="49.03" shape="12.64,63.42 -35.53,72.59"/>
    </edge>
    <edge id="gneE14" from="gneJ1" to="gneJ4" priority="-1">
        <lane id="gneE14_0" index="0" speed="13.89" length="31.27" shape="100.14,57.17 104.06,26.15"/>
    </edge>
    <edge id="gneE15" from="gneJ4" to="gneJ7" priority="-1">
        <lane id="gneE15_0" index="0" speed="13.89" length="24.89" shape="104.69,11.53 103.70,-13.34"/>
    </edge>
    <edge id="gneE16" from="gneJ7" to="gneJ10" priority="-1">
        <lane id="gneE16_0" index="0" speed="13.89" length="32.25" shape="104.19,-28.45 107.55,-60.53"/>
    </edge>
    <edge id="gneE17" from="gneJ9" to="gneJ13" priority="-1">
        <lane id="gneE17_0" index="0" speed="13.89" length="37.64" shape="190.00,-58.70 227.64,-58.10"/>
    </edge>
    <edge id="gneE18" from="gneJ8" to="gneJ3" priority="-1">
        <lane id="gneE18_0" index="0" speed="13.89" length="28.95" shape="175.64,-13.42 177.25,15.48"/>
    </edge>
    <edge id="gneE2" from="gneJ2" to="gneJ3" priority="-1">
        <lane id="gneE2_0" index="0" speed="13.89" length="35.48" shape="172.03,65.66 174.06,30.24"/>
    </edge>
    <edge id="gneE3" from="gneJ3" to="gneJ4" priority="-1">
        <lane id="gneE3_0" index="0" speed="13.89" length="55.02" shape="168.40,24.29 113.48,20.96"/>
    </edge>
    <edge id="gneE4" from="gneJ4" to="gneJ5" priority="-1">
        <lane id="gneE4_0" index="0" speed="13.89" length="66.63" shape="99.04,20.20 32.47,17.20"/>
    </edge>
    <edge id="gneE5" from="gneJ5" to="gneJ6" priority="-1">
        <lane id="gneE5_0" index="0" speed="13.89" length="37.08" shape="24.55,7.54 30.14,-29.11"/>
    </edge>
    <edge id="gneE6" from="gneJ6" to="gneJ7" priority="-1">
        <lane id="gneE6_0" index="0" speed="13.89" length="58.84" shape="40.40,-36.20 97.94,-23.91"/>
    </edge>
    <edge id="gneE7" from="gneJ7" to="gneJ8" priority="-1">
        <lane id="gneE7_0" index="0" speed="13.89" length="54.41" shape="112.53,-22.29 166.94,-21.73"/>
    </edge>
    <edge id="gneE8" from="gneJ8" to="gneJ9" priority="-1">
        <lane id="gneE8_0" index="0" speed="13.89" length="24.58" shape="173.71,-26.50 179.99,-50.26"/>
    </edge>
    <edge id="gneE9" from="gneJ9" to="gneJ10" priority="-1">
        <lane id="gneE9_0" index="0" speed="13.89" length="59.40" shape="175.73,-56.69 116.93,-65.09"/>
    </edge>

    <tlLogic id="gneJ0" type="static" programID="0" offset="0">
        <phase duration="42" state="GgrrGG"/>
        <phase duration="6"  state="yyrryy"/>
        <phase duration="42" state="rrGGGr"/>
        <phase duration="3"  state="rryyyr"/>
    </tlLogic>
    <tlLogic id="gneJ1" type="static" programID="0" offset="0">
        <phase duration="42" state="GgrrGG"/>
        <phase duration="6"  state="yyrryy"/>
        <phase duration="42" state="rrGGGr"/>
        <phase duration="3"  state="rryyyr"/>
    </tlLogic>
    <tlLogic id="gneJ10" type="static" programID="0" offset="0">
        <phase duration="42" state="GGGgrr"/>
        <phase duration="6"  state="yyyyrr"/>
        <phase duration="42" state="GrrrGG"/>
        <phase duration="3"  state="yrrryy"/>
    </tlLogic>
    <tlLogic id="gneJ3" type="static" programID="0" offset="0">
        <phase duration="42" state="GgrrGG"/>
        <phase duration="6"  state="yyrryy"/>
        <phase duration="42" state="rrGGGr"/>
        <phase duration="3"  state="rryyyr"/>
    </tlLogic>
    <tlLogic id="gneJ4" type="static" programID="0" offset="0">
        <phase duration="42" state="GGgrrrGGgrrr"/>
        <phase duration="6"  state="yyyrrryyyrrr"/>
        <phase duration="42" state="rrrGGgrrrGGg"/>
        <phase duration="3"  state="rrryyyrrryyy"/>
    </tlLogic>
    <tlLogic id="gneJ5" type="static" programID="0" offset="0">
        <phase duration="42" state="rrGGGg"/>
        <phase duration="6"  state="rryyyy"/>
        <phase duration="42" state="GGGrrr"/>
        <phase duration="3"  state="yyyrrr"/>
    </tlLogic>
    <tlLogic id="gneJ6" type="static" programID="0" offset="0">
        <phase duration="42" state="rrGGGg"/>
        <phase duration="6"  state="rryyyy"/>
        <phase duration="42" state="GGGrrr"/>
        <phase duration="3"  state="yyyrrr"/>
    </tlLogic>
    <tlLogic id="gneJ7" type="static" programID="0" offset="0">
        <phase duration="42" state="GGgrrrGGgrrr"/>
        <phase duration="6"  state="yyyrrryyyrrr"/>
        <phase duration="42" state="rrrGGgrrrGGg"/>
        <phase duration="3"  state="rrryyyrrryyy"/>
    </tlLogic>
    <tlLogic id="gneJ8" type="static" programID="0" offset="0">
        <phase duration="42" state="GGGgrr"/>
        <phase duration="6"  state="yyyyrr"/>
        <phase duration="42" state="GrrrGG"/>
        <phase duration="3"  state="yrrryy"/>
    </tlLogic>
    <tlLogic id="gneJ9" type="static" programID="0" offset="0">
        <phase duration="42" state="GGGgrr"/>
        <phase duration="6"  state="yyyyrr"/>
        <phase duration="42" state="GrrrGG"/>
        <phase duration="3"  state="yrrryy"/>
    </tlLogic>

    <junction id="gneJ0" type="traffic_light" x="18.51" y="60.67" incLanes="-gneE0_0 gneE12_0 -gneE13_0" intLanes=":gneJ0_0_0 :gneJ0_6_0 :gneJ0_2_0 :gneJ0_3_0 :gneJ0_4_0 :gneJ0_5_0" shape="25.86,64.24 26.17,57.85 24.02,57.30 23.32,56.71 22.87,55.91 22.68,54.91 22.74,53.69 16.41,52.79 15.56,55.74 14.87,56.85 14.00,57.72 12.96,58.33 11.74,58.71 12.94,64.99 15.65,64.49 17.67,64.19 19.36,64.04 21.05,64.02 23.10,64.10">
        <request index="0" response="000000" foes="001000" cont="0"/>
        <request index="1" response="110000" foes="111000" cont="1"/>
        <request index="2" response="100000" foes="100000" cont="0"/>
        <request index="3" response="100011" foes="100011" cont="0"/>
        <request index="4" response="000000" foes="000010" cont="0"/>
        <request index="5" response="000000" foes="001110" cont="0"/>
    </junction>
    <junction id="gneJ1" type="traffic_light" x="100.80" y="64.74" incLanes="-gneE1_0 -gneE14_0 gneE0_0" intLanes=":gneJ1_0_0 :gneJ1_6_0 :gneJ1_2_0 :gneJ1_3_0 :gneJ1_4_0 :gneJ1_5_0" shape="108.03,68.36 108.40,61.97 106.23,61.40 105.53,60.81 105.07,60.00 104.86,58.99 104.90,57.77 98.55,56.97 97.80,59.41 97.14,60.24 96.28,60.82 95.24,61.14 94.00,61.20 93.68,67.59">
        <request index="0" response="000000" foes="001000" cont="0"/>
        <request index="1" response="110000" foes="111000" cont="1"/>
        <request index="2" response="100000" foes="100000" cont="0"/>
        <request index="3" response="100011" foes="100011" cont="0"/>
        <request index="4" response="000000" foes="000010" cont="0"/>
        <request index="5" response="000000" foes="001110" cont="0"/>
    </junction>